*%/*                                                                    00050000
         MACRO                                                          00100000
&NAME   ABEND &CC,&DUMP,&STEP,&USESYS,&DUMPOPT=,&DUMPOPX=,&REASON= @L2C 00150000
.*000400,000800,001600-001700,001800-002600,003400-005400               00200000
.*005800-006000,006200,006800-007200,007600-008400,008800               00250000
.*                                                                      00300000
.********************************************************************** 00350000
.*                                                                    * 00400000
.* MACRO NAME = ABEND                                                 * 00450000
.*                                                                    * 00500000
.* DESCRIPTIVE NAME = ABNORMALLY TERMINATE THE CURRENT TASK           * 00550000
.*                                                                    * 00600000
.* COPYRIGHT =                                                        * 00650000
.*   5686-066                                                         * 00700000
.*   THIS MODULE IS "RESTRICTED MATERIALS OF IBM"                     * 00750000
.*   (C) COPYRIGHT IBM CORP. 1996                                     * 00800000
.*   LICENSED MATERIALS - PROPERTY OF IBM                             * 00850000
.*                                                                    * 00900000
.* MACMEAN = ABEND MEANS ABNORMALLY TERMINATE THE CURRENT TASK        * 00950000
.* STATUS  = HBB3310                                                  * 01000000
.* MACCOMP = SC1CM                                                    * 01050000
.*                                                                    * 01100000
.* UPDATED 03/27/81 OS/VS2 HBB2102                            @G860P1C* 01150000
.* $L1=AR     ,HBB3310,850916,PDA8: SUPPORT FOR ACCESS REGISTERS  @L1A* 01200000
.* $L2=DATASPAC,HBB3310,861029,PDT9: PROPAGATION OF DATA SPACE        * 01250000
.*                                   STORAGE RANGES FOR ABDUMP    @L2A* 01300000
.* $P1=PC42131,HBB3310,880215,PDL3: LCLB FOR &B TOO SMALL         @P1A* 01350000
.* $01=OY36787,HBB3310,901101,PDXB: CHECK FOR REASON < 0              * 01400000
.*                                                                    * 01450000
.*   @D61ADTN: VSE/ESA COMPATIBILITY WITH MVS/ESA                     * 01466600
.*                                                                    * 01483200
.********************************************************************** 01500000
.*                                                                      01550000
         LCLA  &CTR                                                     01600000
         LCLB  &B(5)                                               @P1C 01650000
         LCLB  &BB(4)                                          @G860P1F 01700000
&NAME    DS    0H                                                       01750000
.********************************************************************** 01753500
.*   CHECK FOR UNSUPPORTED KEYWORDS IN THE VSE ENVIRONMENT   @D61ADTN * 01757000
.********************************************************************** 01760500
.*                                                                      01764000
         AIF (T'&DUMPOPT EQ 'O').X1                            @D61ADTN 01767500
         MNOTE 4,'PARAMETER DUMPOPT IS IGNORED BY VSE/ESA.'    @D61ADTN 01771000
         AIF (T'&DUMPOPX EQ 'O').X2                            @D61ADTN 01774500
         MNOTE 4,'PARAMETER DUMPOPX IS IGNORED BY VSE/ESA.'    @D61ADTN 01778000
.X1      ANOP                                                  @D61ADTN 01781500
         AIF (T'&DUMPOPX EQ 'O').X2                            @D61ADTN 01785000
         MNOTE 4,'PARAMETER DUMPOPX IS IGNORED BY VSE/ESA.'    @D61ADTN 01788500
.X2      ANOP                                                  @D61ADTN 01792000
.*                                                                      01795500
         AIF   ('&CC' EQ '').E1                                         01800000
&B(1)    SETB  ('&DUMP' EQ 'DUMP')                                      01850000
&B(2)    SETB  ('&STEP' EQ 'STEP')                                      01900000
&B(3)    SETB  ('&DUMPOPT' NE '')                                       01950000
&B(4)    SETB  ('&REASON' NE '')       REASON CODE SPECIFIED   @G860P1F 02000000
&B(5)    SETB  ('&DUMPOPX' NE '')      DUMPOPX SPECIFIED           @L2A 02050000
&BB(1)   SETB  ('&CC'(1,1) NE '(' AND T'&CC NE 'N')            @G860P1F 02100000
&BB(2)   SETB  0                       INITIALIZE TO ZERO      @G860P1F 02150000
         AIF   ('&REASON' EQ '').A1  REASON CODE NOT SPECIFIED @G860P1F 02200000
&BB(2)   SETB  ('&REASON'(1,1) NE '(' AND T'&REASON NE 'N')    @G860P1F 02250000
.A1      ANOP                                                  @G860P1F 02300000
&BB(3)   SETB  (&BB(1) AND &BB(2))                             @G860P1F 02350000
&BB(4)   SETB  0                       INITIALIZE TO ZERO      @G860P1F 02400000
         AIF   ('&USESYS' NE 'SYSTEM' AND '&USESYS' NE 'USER' AND '&USEC02450000
               SYS' NE '').E4                                           02500000
.TEST0   AIF   ('&DUMP' NE '' AND NOT &B(1)).E2                         02550000
.TEST    AIF   ('&STEP' NE '' AND NOT &B(2)).E3                         02600000
         ANOP                                                      @L2A 02650000
.TEST1   AIF   (&B(3) AND &B(5)).E6                                @L2A 02700000
&CTR     SETA  128*&B(1)+64*&B(2)+32*&B(3)+32*&B(5)+4*&B(4)        @L2C 02750000
         AIF   ('&CC'(1,1) EQ '(').CONTA                                02800000
         AIF   (T'&CC NE 'N').AA                                        02850000
         AIF   (&CC GT 4095).AA0                                        02900000
&BB(4)   SETB  1           HIGH ORDER 8 BITS OF REG1 ARE ZEROS @G860P1F 02950000
.CONTA   ANOP                                                           03000000
         IHBINNRR &CC             LOAD REG1 WITH COMPCODE          @L1C 03050000
         AIF   (T'&CC EQ 'N' AND '&CC'(1,1) NE '(').CKSYS               03100000
.POSITIO ANOP                                                           03150000
         AIF   ('&USESYS' EQ '').FLAGS                                  03200000
         SLL   1,20(0)            SHIFT OFF HIGH ORDER 20 BITS @G860P1F 03250000
&BB(4)   SETB  1           HIGH ORDER 8 BITS OF REG1 ARE ZEROS @G860P1F 03300000
         AIF   ('&USESYS' NE 'SYSTEM').USER                             03350000
         SRL   1,8(0)             CODE IN SYSTEM POSITION               03400000
         AGO   .FLAGS                                                   03450000
.USER    SRL   1,20(0)            SHIFT TO USER POSITION                03500000
         AGO   .FLAGS                                                   03550000
.AA0     ANOP                                                           03600000
         AIF   ('&USESYS' EQ '').AA1                                    03650000
         MNOTE *,'CC EXCEEDS SPECIFIED LIMITS - LOW 12 BITS USED'       03700000
         AGO   .AA                                                      03750000
.AA1     MNOTE *,'CC EXCEEDS SPECIFIED LIMITS'                          03800000
.AA      AIF   (&BB(3)).AA2                                    @G860P1F 03850000
         CNOP  0,4                                             @G860P1F 03900000
         B     *+8                BRANCH AROUND CONSTANTS               03950000
         DC    AL4(&CC)                                                 04000000
         L     1,*-4              LOAD REG1 WITH COMPCODE               04050000
         AGO   .POSITIO                                                 04100000
.AA2     CNOP  0,4                ALIGN ON WORD BOUNDARY       @G860P1F 04150000
         B     *+12               BRANCH AROUND CONSTANTS      @G860P1C 04200000
         DC    AL4(&CC)           COMPLETION CODE              @G860P1F 04250000
         DC    AL4(&REASON)       REASON CODE                  @G860P1C 04300000
         L     1,*-8              LOAD REG1 WITH COMP CODE     @G860P1C 04350000
         L     15,*-8             LOAD REG15 WITH REASON CODE  @G860P1C 04400000
         AGO   .POSITIO                                        @G860P1F 04450000
.CKSYS   AIF   ('&USESYS' NE 'SYSTEM').FLAGS                            04500000
         SLL   1,12(0)            CODE IN SYSTEM POSITION               04550000
.*  PROCESS REASON CODE.                                       @G860P1F 04600000
.FLAGS   ANOP                                                  @G860P1F 04650000
         AIF   ('&REASON' EQ '').R9 REASON CODE NOT SPECIFIED  @G860P1F 04700000
         AIF   (&BB(3)).R9                                     @G860P1F 04750000
         AIF   ('&REASON'(1,1) EQ '(').R2                      @G860P1F 04800000
         AIF   (T'&REASON NE 'N').R5                           @G860P1F 04850000
         AIF   (&REASON GT 4095).R5                            @G860P1F 04900000
         AIF   (&REASON LT 0).R5                                   @01A 04950000
         LA    15,&REASON         LOAD REG15 WITH REASON CODE  @G860P1F 05000000
         AGO   .R9                                             @G860P1F 05050000
.* R2    AIF   (T'&REASON(1) NE 'N').R3                        @G860P1F 05100000
.R2      AIF   ('&REASON' EQ '(15)').R9                        @G860P1C 05150000
.R3      ANOP                                                  @G860P1F 05200000
         LR    15,&REASON(1)      LOAD REG15 WITH REASON CODE  @G860P1F 05250000
         AGO   .R9                                             @G860P1F 05300000
.R5      ANOP                                                  @G860P1F 05350000
         CNOP  0,4                ALIGN ON WORD BOUNDARY       @G860P1C 05400000
         B     *+8                BRANCH AROUND CONSTANTS      @G860P1C 05450000
         DC    AL4(&REASON)       REASON CODE                  @G860P1C 05500000
         L     15,*-4             LOAD REG15 WITH REASON CODE  @G860P1C 05550000
.R9      AIF   (&CTR EQ 0).SVC                                 @G860P1F 05600000
         AIF   (&BB(4) OR '&REASON' EQ '').R10                 @G860P1F 05650000
         SLL   1,8(0)             SHIFT OFF HIGH ORDER 8 BITS  @G860P1F 05700000
         SRL   1,8(0)             ZERO HIGH ORDER 8 BITS       @G860P1F 05750000
.R10     ANOP                                                  @G860P1F 05800000
         LA    0,&CTR.(0,0)       DUMP/STEP/DUMPOPTS/REASON    @G860P1F 05850000
         SLL   0,24(0)            SHIFT TO HIGH ORDER                   05900000
         OR    1,0                OR IN WITH COMPCODE                   05950000
.DUMPOPT AIF  (NOT &B(3)).DUMPOPX                                  @L2C 06000000
         IHBINNRR ,&DUMPOPT       LOAD REG0                             06050000
         AGO  .SVC                                                 @L2A 06100000
.DUMPOPX ANOP                                                      @L2A 06150000
         AIF  (NOT &B(5)).SVC     TEST IF DUMPOPX SPECIFIED        @L2A 06200000
         IHBINNRR ,&DUMPOPX       LOAD REGISTER 0                  @L2A 06250000
* R14 IS USED AS WORK REGISTER FOR THE SIMSVC                  @D61ADTN 06275000
.SVC     SIMSVC WR=(14)           ISSUE VSE/ESA ABEND SVC      @D61ADTN 06300000
         SVC   13                 LINK TO ABEND ROUTINE                 06325000
         MEXIT                                                          06350000
.E1      IHBERMAC 28,303                                                06400000
         MEXIT                                                 @G860P1F 06450000
.E2      IHBERMAC  37,,&DUMP                                            06500000
         AGO   .TEST                                                    06550000
.E3      IHBERMAC  38,,&STEP                                            06600000
         AGO   .TEST1                                              @L2C 06650000
.E4      IHBERMAC  39,,&USESYS                                          06700000
         AGO   .TEST0                                                   06750000
.E5      MNOTE 8,'VALUE OF ''REASON'' EXCEEDS DECIMAL 65535'   @G860P1F 06800000
         MEXIT                                                     @L2A 06850000
.E6      IHBERMAC 1304,DUMPOPT,DUMPOPX                             @L2A 06900000
         MEND                                                           06950000
**/                                                                     07000000
*  ABEND: /***********************************************************/ 07050000
*/*ABEND: PL/S VERSION OF ABEND MACRO                                */ 07100000
*/********************************************************************/ 07150000
* MACRO                                                                 07200000
*  KEYS(DUMP,                                                           07250000
*       STEP,                                                           07300000
*       USER,                                                           07350000
*       SYSTEM,                                                         07400000
*       DUMPOPTS,                                                       07450000
*       DUMPOPX,                                              /* @L2A*/ 07500000
*       REASON);                                                        07550000
*        ANS('?'||MACLABEL||'ABENDP '||MACLIST||MACKEYS||';'); /*@L2A*/ 07600000
*%END;                                                                  07650000
