* N O T E   EFFECTIVE WITH THE SWITCH OF VSAM AND VTAM TO PROGRAM       00050000
*           PRODUCTS, ALL NEW KEYWORDS ARE IMPLEMENTED AS  ELEMENTS     00100000
*           IN THE SUBLISTS OF THE PARMS, PARM2, AND PARM3 KEYWORDS.    00150000
*           AS SUCH, THEY ARE VALIDITY CHECKED BY THE INDIVIDUAL        00200000
*           ACCESS METHODS, NOT BY THE CONTROL BLOCK MANIPULATION       00250000
*           MACROS.                                                     00300000
*                                                                       00350000
         MACRO                                                          00400000
&NAME    ACB ,                    INT  ACB  RPL  NIB  EXLST            *00450000
               &AM=,               X                                   *00500000
               &APPLID=,                X                              *00550000
               &BSTRNO=,                X                      @D21ADGW*00600000
               &BUFND=,                 X                              *00650000
               &BUFNI=,                 X                              *00700000
               &BUFSP=,                 X                              *00750000
               &CATALOG=,               X                              *00800000
               &CRA=,                   X                              *00850000
               &DDNAME=,                X                              *00900000
               &EXLST=,                 X                              *00950000
               &MACRF=,                 X                              *01000000
               &MAREA=,                 X                              *01050000
               &MLEN=,                  X                              *01100000
               &MODE=,                  TOLERATE MVS SYNTAX    @D22VDUS*01150000
               &PASSWD=,                X                              *01200000
               &RMODE31=,               X                      @D22VDUS*01250000
               &SHRPOOL=,               X                      @D22MDUS*01300000
               &STRNO=,                 X                              *01350000
               &USERPTR=,               X                              *01400000
               &PARMS=,                 X                      @D35ZE86*01450000
               &PARM2=,                 X                      @D35ZE86*01500000
               &PARM3=                                         @D35ZE86 01550000
.*                                                                      01600000
.* IBM DISK OPERATING SYSTEM                                            01650000
*  VSAM - ACB - 5686-03702(CF7)  -  VERSION 2 RELEASE 1.0               01700000
.*                                                                      01750000
.* /* START OF SPECIFICATIONS ***************************************** 01800000
.*                                                                      01850000
.*01* MODULE-NAME = ACB (VSE/ESA)                                       01900000
.*                                                                      01950000
.*01* DESCRIPTIVE-NAME = ACCESS METHOD CONTROL BLOCK ROOT MACRO         02000000
.*                                                                      02050000
.*01* COPYRIGHT =                                                       02100000
.*       5686-037 COPYRIGHT IBM CORP 1979 1990                          02150000
.*       LICENSED MATERIAL - PROGRAM PROPERTY OF IBM                    02200000
.*       REFER TO COPYRIGHT INSTRUCTIONS                                02250000
.*                FORM NUMBER G120-2083                                 02300000
.*                                                                      02350000
.*01* STATUS = VERSION 2 RELEASE 1.0                                    02400000
.*                                                                      02450000
.*01* FUNCTION = ENSURES THAT PARAMETERS SPECIFIED BY THE USER ARE      02500000
.*        VALID FOR THE ACCESS METHOD SPECIFIED.  THEN PASSES CONTROL   02550000
.*        TO THE ACCESS METHOD INTERNAL MACROS WHICH COMPLETE THE       02600000
.*        VALIDITY CHECKING AND GENERATE THE ACB                        02650000
.*                                                                      02700000
.*01* MODULE-TYPE = MACRO                                               02750000
.*                                                                      02800000
.*02*   PROCESSOR = /370 ASSEMBLER                                      02850000
.*                                                                      02900000
.*01* INPUT = SEE PROTOTYPE STATMENT                                    02950000
.*                                                                      03000000
.*01* OUTPUT = ACB GENERATED                                            03050000
.*                                                                      03100000
.*01* EXIT-NORMAL = N/A                                                 03150000
.*                                                                      03200000
.*01* EXIT-ERROR = MNOTE FOR ERROR CONDITIONS. GENERATION CONTINUES     03250000
.*                                                                      03300000
.*01* MACROS = IKQERMAC                                                 03350000
.*        IKQACB1                                                       03400000
.*        ISTACB1                                                       03450000
.*                                                                      03500000
.*01* CHANGE-ACTIVITY = VSAM/VTAM INDEPENDENCE OF PROGRAM PRODUCTS      03550000
.*                                                             @D35ZE86 03600000
.*                      DATA SET NAME SHARING SUPPORT          @D21ADGW 03650000
.*                      MULTIPLE LSR SUPPORT                   @D22MDUS 03700000
.*                      31 BIT ADDRESSING                      @D22VDUS 03750000
.*                                                                      03800000
.**** END OF SPECIFICATIONS *****************************************/  03850000
.*                                                                      03900000
         AIF ('&AM' EQ '').VSMACB       DOS/VS VSAM EXPANSION           03950000
         AIF ('&AM' EQ 'VSAM').VSMACB   DOS/VS VSAM EXPANSION           04000000
         AIF ('&AM' EQ 'VTAM').VTMACB   DOS/VS VTAM EXPANSION           04050000
         IKQERMAC 3,AM,&AM              INVALID ACCESS METHOD           04100000
.*                                                                      04150000
.*       TEST FOR NON-VSAM KEYWORDS SPECIFIED FOR AM=VSAM               04200000
.*                                                                      04250000
.VSMACB  ANOP                                                           04300000
         AIF   ('&APPLID' EQ '').VSMA010                                04350000
         IKQERMAC 11,APPLID,VSAM        APPLID   IS A VTAM KEYWORD      04400000
.VSMA010 ANOP                                                           04450000
.*                                                                      04500000
.*       FETCH THE MACRO TO COMPLETE VALIDITY CHECKING THE VSAM ACB     04550000
.*                                                                      04600000
         IKQACB1 ,                INT  ACB  RPL  NIB  EXLST    @D35ZE86*04650000
               AM=&AM,             X                                   *04700000
               BUFND=&BUFND,            X                              *04750000
               BSTRNO=&BSTRNO,          X                      @D21ADWS*04800000
               BUFNI=&BUFNI,            X                              *04850000
               BUFSP=&BUFSP,            X                              *04900000
               CATALOG=&CATALOG,        X                              *04950000
               CRA=&CRA,                X                              *05000000
               DDNAME=&DDNAME,          X                              *05050000
               EXLST=&EXLST,            X                              *05100000
               MACRF=&MACRF,            X                              *05150000
               MAREA=&MAREA,            X                              *05200000
               MLEN=&MLEN,              X                              *05250000
               NAME=&NAME,              X                              *05300000
               PASSWD=&PASSWD,          X                              *05350000
               RMODE31=&RMODE31,        X                      @D22VDUS*05400000
               SHRPOOL=&SHRPOOL,        X                      @D22MDUS*05450000
               STRNO=&STRNO,            X                              *05500000
               USERPTR=&USERPTR,        X                              *05550000
               PARMS=&PARMS,            X                      @D35ZE86*05600000
               PARM2=&PARM2,            X                      @D35ZE86*05650000
               PARM3=&PARM3             X                      @D35ZE86 05700000
         MEXIT                                                          05750000
.*                                                                      05800000
.*       TEST FOR NON-VTAM KEYWORDS SPECIFIED FOR AM=VTAM               05850000
.*                                                                      05900000
.VTMACB  ANOP                                                           05950000
         AIF   ('&BSTRNO' EQ '').VTMA010                                06000000
         IKQERMAC 11,BSTRNO,VTAM        BSTRNO   IS A VSAM KEYWORD      06050000
.VTMA010 AIF   ('&BUFND' EQ '').VTMA020                                 06100000
         IKQERMAC 11,BUFND,VTAM         BUFND    IS A VSAM KEYWORD      06150000
.VTMA020 AIF   ('&BUFNI' EQ '').VTMA030                                 06200000
         IKQERMAC 11,BUFNI,VTAM         BUFNI    IS A VSAM KEYWORD      06250000
.VTMA030 AIF   ('&BUFSP' EQ '').VTMA040                                 06300000
         IKQERMAC 11,BUFSP,VTAM         BUFSP    IS A VSAM KEYWORD      06350000
.VTMA040 AIF   ('&CATALOG' EQ '').VTMA050                               06400000
         IKQERMAC 11,CATALOG,VTAM       CATALOG  IS A VSAM KEYWORD      06450000
.VTMA050 AIF   ('&CRA' EQ '').VTMA060                                   06500000
         IKQERMAC 11,CRA,VTAM           CRA      IS A VSAM KEYWORD      06550000
.VTMA060 AIF   ('&DDNAME' EQ '').VTMA070                                06600000
         IKQERMAC 11,DDNAME,VTAM        DDNAME   IS A VSAM KEYWORD      06650000
.VTMA070 AIF   ('&MAREA' EQ '').VTMA075                        @D22VDUS 06700000
         IKQERMAC 11,MAREA,VTAM         MAREA    IS A VSAM KEYWORD      06750000
.VTMA075 AIF   ('&RMODE31' EQ '').VTMA080                      @D22VDUS 06800000
         IKQERMAC 11,RMODE31,VTAM                IS A VSAM KEYW@D22VDUS 06850000
.VTMA080 AIF   ('&MLEN' EQ '').VTMA085                         @D22MDUS 06900000
         IKQERMAC 11,MLEN,VTAM          MLEN     IS A VSAM KEYWORD      06950000
.VTMA085 AIF   ('&SHRPOOL' EQ '').VTMA090                      @D22MDUS 07000000
         IKQERMAC 11,SHRPOOL,VTAM       SHRPOOL  IS A VSAM KEYW@D22MDUS 07050000
.VTMA090 AIF   ('&STRNO' EQ '').VTMA100                                 07100000
         IKQERMAC 11,STRNO,VTAM         STRNO    IS A VSAM KEYWORD      07150000
.VTMA100 AIF   ('&USERPTR' EQ '').VTMA110                               07200000
         IKQERMAC 11,USERPTR,VTAM       USERPTR  IS A VSAM KEYWORD      07250000
.VTMA110 ANOP                                                           07300000
.*                                                                      07350000
.*       TEST FOR OS/VS EXCLUSIVE VTAM KEYWORDS                         07400000
.*                                                                      07450000
.*       AIF   ('&XXXXXX' EQ '').VTMB010 USE THIS FORM OF TESTING       07500000
.*       IKQERMAC 18,XXXXXX,DOS/VS      IF APPLICABLE                   07550000
.VTMB010 ANOP                                                           07600000
.*                                                                      07650000
.*       FETCH THE MACRO TO COMPLETE VALIDITY CHECKING THE VTAM ACB     07700000
.*                                                                      07750000
         ISTACB1 ,                INT  ACB  RPL  NIB  EXLST    @D35ZE86*07800000
               AM=&AM,             X                                   *07850000
               APPLID=&APPLID,          X                              *07900000
               EXLST=&EXLST,            X                              *07950000
               MACRF=&MACRF,            X                              *08000000
               NAME=&NAME,              X                              *08050000
               PASSWD=&PASSWD,          X                              *08100000
               PARMS=&PARMS,            X                      @D35ZE86*08150000
               PARM2=&PARM2,            X                      @D35ZE86*08200000
               PARM3=&PARM3             X                      @D35ZE86 08250000
         MEND                                                           08300000
