*%GOTO  MAPL; /*PLS COMMENT TO AVOID UNMATCHED QUOTE PROBLEMS           00050000
         MACRO                                                 @D35EDUL 00100000
&NAME    APL &DSECT=                                           @D35EDUL 00150000
************************************************************** @D35EDUL 00200000
*                                                            * @D35EDUL 00250000
.*     IBM DISK OPERATING SYSTEM                             * @D35EDUL 00300000
*      SUPERVISOR - APL - 5686-032-06                        * @D52VDCS 00350052
*                                                            * @D35EDUL 00400000
         AGO   .ZZZ                                            @D14ZDJB 00450000
*      LICENSED MATERIALS - PROPERTY OF IBM                  * @D52VDCS 00475052
*      THIS MACRO IS "RESTRICTED MATERIALS OF IBM"             @D31UDMZ 00500000
*      5686-032 (C) COPYRIGHT IBM CORP. 1984, 1992           * @D52VDCS 00550052
*      SEE COPYRIGHT INSTRUCTIONS                            * @D52VDCS 00600052
.ZZZ     ANOP                                                  @D14ZDJB 00750000
.*                                                           * @D35EDUL 00800000
.*     APL - MAPPING STRUCTURE FOR THE PARTITION ALLOCATION  * @D52VDCS 00850052
.*           PARAMETER LIST AS NEEDED BY THE PARTITION       * @D52VDCS 00900052
.*           ALLOCATION COMMAND PROCESSING ROUTINES.         * @D52VDCS 00950052
.*           (JOB CONTROL MODULES AND ATTENTION ROUTINES)    * @D35EDUL 01050000
.*           ALLOCATION COMMAND PROCESSORS OBTAIN STORAGE    * @D52VDCS 01100052
.*           FOR THE APL, AND PASS THE VALUES SPECIFIED BY   * @D52VDCS 01150052
.*           ALLOC OR ALLOCR COMMAND IN THIS LIST TO STORAGE * @D52VDCS 01200052
.*           MANAGEMENT.                                     * @D52VDCS 01250052
.*                                                           * @D35EDUL 01300000
.*           THE MAPPING STRUCTURE EXPANDS EITHER INTO AN    * @D35EDUL 01350000
.*           INLINE TABLE OR A DSECT.                        * @D35EDUL 01400000
.*                                                           * @D35EDUL 01450000
.*     NO OPERAND SPECIFIED - INLINE TABLE GENERATED         * @D35EDUL 01500000
.*     DSECT=YES SPECIFIED  - DSECT GENERATED                * @D35EDUL 01550000
.*                                                           * @D35EDUL 01600000
.*     CREATED BY: JOB CONTROL OR ATTENTION                  * @D52VDCS 01650052
.*                                                           * @D35EDUL 01700000
.*     USED BY:    JOB CONTROL, OR ATTENTION, AND STORAGE    * @D52VDCS 01750052
.*                 MANAGEMENT OF SUPERVISOR                  * @D52VDCS 01800052
*                                                            * @D35EDUL 01850000
************************************************************** @D35EDUL 01900000
         SPACE 2                                               @D35EDUL 01950000
         AIF   (T'&DSECT EQ 'O').NODSECT  INLINE CODE GENERATN?@D35EDUL 02000000
         AIF   ('&DSECT' EQ 'YES').DSECT  DSECT GENERATION?    @D35EDUL 02050000
         MNOTE 1,'INVALID DSECT OPERAND SPECIFICATION - OPERAND IGNORED*02100000
                AND INLINE CODE GENERATED'                     @D35EDUL 02150000
.NODSECT ANOP                                                  @D35EDUL 02200000
&NAME    DS    0F                                              @D52VDCS 02250052
         AGO   .GENTAB                                         @D35EDUL 02300000
.DSECT   ANOP                                                  @D35EDUL 02350000
&NAME    DSECT                                                 @D35EDUL 02400000
.GENTAB  ANOP                                                  @D35EDUL 02450000
APLSID   DS    CL2                 SPACE IDENTIFIER            @D14NDFG 02500000
APLNO    DS    H                   NO OF ELEMENTS IN LIST      @D14NDFG 02550000
APLPID   DS    CL2                 PARTITION IDENTIFIER        @D35EDUL 02600000
         DS    CL2                 RESERVED(ALLIGN FULLWORD)   @D52VDCS 02633352
APLSIZE  DS    F                   PARTITION SIZE IN K BYTES   @D52VDCS 02666652
APLNG    EQU   *-APLPID            ENTRY LENGTH                @D14NDFG 02700000
APLNGMAX EQU   100                 MAX.LENGTH FOR 12 PARTITIONS@D52VDCS 02750052
         MEND                                                  @D35EDUL 02800000
* END OF PLS COMMENT */ %MAPL : ;                                       02850000
* DECLARE                                                               02900000
* 1  APL       BASED,     /* ALLOCATION PARAMETER LIST       @D14NDFG*/ 02950000
*  2 APLSID    CHAR(2),   /* SPACE IDENTIFIER                @D14NDFG*/ 03000000
*  2 APLNO     PTR(16) ;  /* NO OF ELEMENTS IN LIST          @D14NDJB*/ 03050000
* DECLARE                 /*                                 @D14NDJB*/ 03100000
* 1  APLENT    BASED,     /* ALLOCATION PARAMETER LIST ENTRY @D14NDJB*/ 03150000
*  2 APLPID    CHAR(2),   /* PARTITION IDENTIFIER            @D14NDFG*/ 03200000
*  2 *         CHAR(2),   /* RESERVED                        @D52VDCS*/ 03250052
*  2 APLSIZE   FIXED(32); /* PARTITION SIZE IN K BYTES       @D52VDCS*/ 03300052
