         MACRO                                                          00050000
&NAME    APPCCMD &RPL=,&ACB=,&CONTROL=,&OPTCD=,&AAREA=,&CONFTXT=,      X00100000
               &EXIT=,&ECB=,&BRANCH=,&AREALEN=,&RECLEN=,&LOCKS=,       X00150000
               &CONMODE=,&SENSE=,&USERFLD=,&LUNAME=,&LOGMODE=,         X00200000
               &CD=,&CONVID=,&QUALIFY=,&TYPE=,&ARG=,&FILL=,&AREA=,     X00250000
               &SESSID=,&SESSIDL=,&DEACTYP=,&CRYPT=,&LIST=,            X00283300
               &CGID=,&NETID=,&CONXMOD=,&RTSRTRN=,&NAMEUSE=        @U3C 00316600
.*                                                                      00350000
.* /***** START OF SPECIFICATIONS ************************************/ 00400000
.* /*                                                                */ 00450000
.* /*  MACRO NAME: APPCCMD                                           */ 00500000
.* /*                                                                */ 00550000
.* /*  DESCRIPTIVE NAME: LU6.2 FUNCTION REQUEST MACRO                */ 00600000
.* /*                                                                */ 00650000
.* /*  COPYRIGHT: LICENSED MATERIALS - PROPERTY OF IBM               */ 00700000
.* /*                                                                */ 01000000
.* /*             THIS PRODUCT CONTAINS "RESTRICTED MATERIALS OF IBM"*/ 01004100
.* /*                                                                */ 01008200
.* /*             5695-117 (C) COPYRIGHT IBM CORP. 1987, 1993.       */ 01012300
.* /*             ALL RIGHTS RESERVED.                               */ 01016400
.* /*                                                                */ 01020500
.* /*             U.S. GOVERNMENT USERS RESTRICTED RIGHTS -          */ 01024600
.* /*             USE, DUPLICATION OR DISCLOSURE RESTRICTED BY       */ 01028700
.* /*             GSA ADP SCHEDULE CONTRACT WITH IBM CORP.           */ 01032800
.* /*                                                                */ 01036900
.* /*             SEE COPYRIGHT INSTRUCTIONS.                        */ 01041000
.* /*                                                                */ 01045100
.* /*  FUNCTION:                                                     */ 01150000
.* /*      GENERATES IN-LINE CODE FOR APPCCMD MACRO                  */ 01200000
.* /*                                                                */ 01250000
.* /*  NOTES:                                                        */ 01300000
.* /*      THIS MACRO REQUIRES A "CONTROL=" PARAMETER TO SPECIFY THE */ 01350000
.* /*      PARTICULAR FUNCTION DESIRED. THE LIST OF VALID CONTROL    */ 01400000
.* /*      VALUES ARE FOLLOWING: ALLOC, SEND, RECEIVE, PREPRCV,      */ 01450000
.* /*      DEALLOC, DEALLOCQ, REJECT, CHECK, RCVFMH5, RESETRCV,      */ 01487500
.* /*      SENDEXPD, RCVEXPD, TESTSTAT, OPRCNTL AND SETSESS.         */ 01525000
.* /*      THE APPCCMD MACRO WHEN ISSUED MUST BE ACCOMPANIED         */ 01562500
.* /*      BY AN RPL THAT CONTAINS A POINTER TO APPC AREA (AAREA=)   */ 01600000
.* /*      WHICH WILL BE USED TO STORE THE VTAM APPC REQUEST         */ 01650000
.* /*      PARAMETER LIST. THE GENERATED CODE LOADS THE RPL          */ 01700000
.* /*      ADDRESS INTO REGISTER 1, MODIFIES RPL FIELDS AS           */ 01750000
.* /*      INDICATED BY THE RPL MODIFIERS ON THE APPCCMD. LOADS      */ 01800000
.* /*      A REQUEST CODE INTO REGISTER ZERO, AND BRANCHES TO THE    */ 01850000
.* /*      INTERFACE ROUTINE WHOSE ADDRESS IS IN THE ACB LOCATED     */ 01900000
.* /*      VIA THE RPL. ANY CODE TO MODIFY THE RPL IS BYPASSED IF    */ 01950000
.* /*      THE RPL IS ALREADY ACTIVE.                            @F2C*/ 02000000
.* /*                                                                */ 02050000
.* /*  PROCESSOR: ASSEMBLER                                          */ 02100000
.* /*                                                                */ 02150000
.* /*  CREATED BY:                                                   */ 02200000
.* /*                                                                */ 02250000
.* /*  INTERNAL MACROS:                                              */ 02300000
.* /*      IST6MCAL,IST6MCDA,IST6MCSE,IST6MCRE,IST6MCPR,IST6MCRJ,    */ 02350000
.* /*      IST6MCCK,IST6MCRF,IST6MCRS,IST6MCOC,IST6MCER,IST6MCUA,    */ 02383300
.* /*      IST6MCSS,IST6MCSX,IST6MCRX,IST6MCTE                       */ 02416600
.* /*                                                                */ 02450000
.* /*  EXTERNAL REFERENCES: NONE                                     */ 02500000
.* /*                                                                */ 02550000
.* /*  CHANGE ACTIVITY:                                              */ 02600000
.* /*    09/03/86 - DP0053 ALLOW USERFLD ON OPRCNTL          @P041406*/ 02625000
.* /*    07/11/88 - ACCEPT NEW CD= KEYWORD ON RECEIVE        @P058398*/ 02637500
.* /*    09/07/88 - CORRECT MISPELLED LOGMODE KEYWORD        @P060481*/ 02643700
.* /*                                                                */ 02650000
.* /* $MAC(APPCCMD),COMP(API),PROD(VTAM): LU6.2 FUNCTION REQUEST     */ 02664200
.* /*                                                                */ 02671300
.* /* FLAG REASON   RELEASE DATE   ORIGIN  FLAG DESCRIPTORS          */ 02678400
.* /* ---- -------- ------- ------ ------  ------------------------- */ 02692600
.* /* $F1= FS1@@CLD HVT3302 880425 255471: SYNCPOINT SUPPORT         */ 02706800
.* /* $F2= RCR0004  HVT3302 880907 255471: SYNCPOINT RCR SUPPORT     */ 02721000
.* /* $Q1= P063278  HVT3302 881205 255471: IMPLEMENT SESSION         */ 02724500
.* /*                                      DEACTIVATION DELAYED      */ 02728000
.* /*                                      FUNCTION                  */ 02731500
.* /* $Q2= P064461  HVT3302 890116 460025: SPLIT RESETRCV INVALIDS   */ 02733300
.* /* $Q3= P064622  HVT3302 890118 460025: REMOVE RESYNC PRIORITY    */ 02734200
.* /* $BA= ACC@@AMS HVT3401 891025 615520: PL/AS CONVERSION          */ 02734400
.* /* $B1= AE@@@AMS HVT3401 890707 460025: SELECTIVE DATA ENCRYPTION */ 02734600
.* /* $B2= AP@@@CLD HVT3401 890519 496698: PERSISTENT LU-LU SESSION  */ 02735000
.* /* $KF= S4N@@CLD HATAPPN 910326 692313: CP-CP SESSIONS            */ 02735100
.* /* $KG= NQNSTG2  NQNAME2 910711 007643: ENHANCED NQN SUPPORT (2)  */ 02740000
.* /* $I1= BD@@@MST APPCE03 911021 510689: APPC Deallocate queueing  */ 02740500
.* /* $I2= FF@@@MST APPCFDX 911120 879315: APPC Full-Duplex support  */ 02741000
.* /* $I3= FT@@@MST APPCTST 910217 510689: APPC TESTSTAT             */ 02741500
.* /* $T1= P100610  NQNAME2 920228 879315: KEYWORD VALUE TOO LONG    */ 02742400
.* /* $U2= P103324  APPCFDX 920710 879315: Latest code not REQRELed  */ 02743600
.* /* $U3= P110887  GENRES  931024 879315: Generic Resource support  */ 02744200
.* /* $U4= P111572  GENRES  931029 879315: Split 6MCRE INVALKW list  */ 02744500
.* /*                                                                */ 02744900
.* /***** END OF SPECIFICATIONS **************************************/ 02750000
.*                                                                      02800000
.* A-000000-999999                                             @R495810 02850000
.*                                                                      02900000
.*     THE VALUE 1 SET TO THE FOLLOWING INDICATOR MEANS THAT RPL IS     02950000
.*     SPECIFIED, EXPANSION CODE CAN BE GENERATED. THE VALUE 0 WILL     03000000
.*     MEAN THAT RPL IS NOT SPECIFIED, NO CODE CAN BE GENERATED.        03050000
.*                                                                      03100000
         GBLB  &ISTGEN                      GENERATE CODE INDICATOR     03150000
.*                                                                      03200000
.*     THE FOLLOWING FLAGS ARE USED TO ENSURE THAT THE COPYRIGHT        03250000
.*     STATEMENTS OF EVERY DIFFERENT MACRO ARE GENERATED AT THE         03300000
.*     FIRST INVOCATION ONLY                                            03350000
.*                                                                      03400000
         GBLB  &ISTAPPC                     APPCCMD CALL INDICATOR      03450000
         GBLB  &ISTAL                       IST6MCAL CALL INDICATOR     03500000
         GBLB  &ISTCK                       IST6MCCK CALL INDICATOR     03550000
         GBLB  &ISTDA                       IST6MCDA CALL INDICATOR     03600000
         GBLB  &ISTER                       IST6MCER CALL INDICATOR     03650000
         GBLB  &ISTOC                       IST6MCOC CALL INDICATOR     03700000
         GBLB  &ISTPR                       IST6MCPR CALL INDICATOR     03750000
         GBLB  &ISTRE                       IST6MCRE CALL INDICATOR     03800000
         GBLB  &ISTRF                       IST6MCRF CALL INDICATOR     03850000
         GBLB  &ISTRJ                       IST6MCRJ CALL INDICATOR     03900000
         GBLB  &ISTRS                       IST6MCRS CALL INDICATOR     03950000
         GBLB  &ISTSE                       IST6MCSE CALL INDICATOR     04000000
         GBLB  &ISTUA                       IST6MCUA CALL INDICATOR     04050000
         GBLB  &ISTUC                       IST6MCUC CALL INDICATOR     04100000
         GBLB  &ISTUI                       IST6MCUI CALL INDICATOR     04150000
         GBLB  &ISTUP                       IST6MCUP CALL INDICATOR     04200000
         GBLB  &ISTSS                       IST6MCSS CALL INDICATOR     04216600
         GBLB  &ISTRX                      IST6MCRX CALL INDICATOR @I2A 04223200
         GBLB  &ISTSX                      IST6MCSX CALL INDICATOR @I2A 04229800
         GBLB  &ISTTE                      IST6MCTE CALL INDICATOR @I3A 04231400
.*                                                                      04243000
&ISTGEN  SETB  1                                                        04250000
         AIF   (&ISTAPPC EQ 1).CKINVOP                                  04300000
&ISTAPPC SETB  1                                                        04800000
.CKINVOP AIF   (N'&SYSLIST EQ 0).CKRPL      POSITIONAL OPERANDS INVALID 04850000
         IST6MCER 7                                                     04900000
.CKRPL   ANOP                               CHECK REQUIRED PARAMETERS   04950000
         AIF   ('&RPL' NE '').CKCTL                                     05000000
         IST6MCER 1,RPL                                                 05050000
&ISTGEN  SETB  0                                                        05100000
.CKCTL   ANOP                                                           05150000
         AIF   ('&CONTROL' NE '').VALCTL                                05200000
         IST6MCER 1,CONTROL                                             05250000
         MEXIT                                                          05300000
.VALCTL  ANOP                                                           05350000
         AIF   ('&CONTROL' EQ 'ALLOC').GENCODE                          05400000
         AIF   ('&CONTROL' EQ 'CHECK').GENCODE                          05450000
         AIF   ('&CONTROL' EQ 'RESETRCV').GENCODE                       05500000
         AIF   ('&CONTROL' EQ 'DEALLOC').GENCODE                        05550000
         AIF   ('&CONTROL' EQ 'DEALLOCQ').GENCODE                  @I1A 05575000
         AIF   ('&CONTROL' EQ 'OPRCNTL').GENCODE                        05600000
         AIF   ('&CONTROL' EQ 'PREPRCV').GENCODE                        05650000
         AIF   ('&CONTROL' EQ 'RECEIVE').GENCODE                        05700000
         AIF   ('&CONTROL' EQ 'REJECT').GENCODE                         05750000
         AIF   ('&CONTROL' EQ 'RCVFMH5').GENCODE                        05800000
         AIF   ('&CONTROL' EQ 'SEND').GENCODE                           05850000
         AIF   ('&CONTROL' EQ 'SETSESS').GENCODE                   @F2A 05875000
         AIF   ('&CONTROL' EQ 'RCVEXPD').GENCODE                   @I2A 05881200
         AIF   ('&CONTROL' EQ 'SENDEXPD').GENCODE                  @I2A 05887400
         AIF   ('&CONTROL' EQ 'TESTSTAT').GENCODE                  @I3A 05893700
         IST6MCER 2,CONTROL,&CONTROL                                    05900000
         MEXIT                                                          05950000
.GENCODE ANOP                                                           06000000
         AIF   (NOT &ISTGEN).CKCHECK                                    06050000
.CKRPL1  ANOP                                                           06100000
         AIF   ('&RPL'(1,1) NE '(').CKRPL2  BRANCH IF NOT REGISTER FORM 06150000
         AIF   ('&RPL' EQ '(1)').ENDRPL     NO LR INSTRUCTION NECESSARY 06200000
&NAME    LR    1,&RPL(1)                    LOAD RPL ADDRESS IN REG1    06250000
         AGO   .CKCHECK                                                 06300000
.CKRPL2  ANOP                                                           06350000
&NAME    LA    1,&RPL                       LOAD RPL ADDRESS IN REG1    06400000
         AGO   .CKCHECK                                                 06450000
.ENDRPL  ANOP                                                           06500000
         AIF   ('&NAME' EQ '').CKCHECK                                  06550000
&NAME    EQU   *                                                        06600000
*                                                                       06650000
.CKCHECK ANOP                                                           06700000
         AIF   ('&CONTROL' NE 'CHECK').RPLACT                           06750000
         IST6MCCK INVALP1=(AREA=&AREA,LOGMODE=&LOGMODE,OPTCD=&OPTCD,ECBX06800000
               =&ECB,CONVID=&CONVID,LUNAME=&LUNAME,SENSE=&SENSE,EXIT=&EX06850000
               XIT,BRANCH=&BRANCH,AAREA=&AAREA,ACB=&ACB,FILL=&FILL,TYPEX06900000
               =&TYPE,QUALIFY=&QUALIFY,LOCKS=&LOCKS,AREALEN=&AREALEN,USX06950000
               ERFLD=&USERFLD,NAMEUSE=&NAMEUSE),                       X07000000
               INVALP2=(CONMODE=&CONMODE,CONFTXT=&CONFTXT,ARG=&ARG,RECLX07050000
               EN=&RECLEN,SESSID=&SESSID,SESSIDL=&SESSIDL,DEACTYP=&DEACX07083300
               TYP,CRYPT=&CRYPT,LIST=&LIST,CGID=&CGID,NETID=&NETID,CONXX07105500
               MOD=&CONXMOD,RTSRTRN=&RTSRTRN)                      @U3C 07127700
         AIF   (NOT &ISTGEN).END                                        07150000
         AGO   .RTNCK                                                   07200000
.RPLACT  ANOP                                                           07250000
         AIF   (NOT &ISTGEN).CKCTL01                                    07300000
         TM    RPLACTIV-IFGRPL(1),X'FF'     IS THE RPL ACTIVE?          07350000
         BO    IST6&SYSNDX                  YES BR AROUND MODIFY CODE   07400000
*                                                                       07450000
.CKAAREA ANOP                                                           07500000
         AIF   ('&AAREA' EQ '').LARPL6                                  07550000
         AIF   ('&AAREA'(1,1) NE '(').CKAARE1                           07600000
         LR    14,&AAREA(1)                                             07650000
         AGO   .RPL6ACT                                                 07700000
.CKAARE1 ANOP                                                           07750000
         LA    14,&AAREA                                                07800000
.RPL6ACT ANOP                                                           07850000
         TM    RPL6ACTV-ISTRPL6X(14),X'FF'  IS THE RPL6 ACTIVE?         07900000
         BO    IST6&SYSNDX                  YES BR AROUND MODIFY CODE   07950000
*                                                                       08000000
         ST    14,RPLAAREA-IFGRPL(1)        STORE AAREA ADDRESS IN RPL  08050000
         ST    1,RPL6RPL-ISTRPL6X(14)    STORE RPL ADDRESS TO APPC AREA 08100000
         LA    15,L'RPL6AREA                GET AAREA LENGTH   @P030295 08150000
         ST    15,RPLAARLN-IFGRPL(1)        STORE AAREA LENGTH IN RPL   08200000
         AGO   .CKACB                                                   08250000
.LARPL6  ANOP                                                           08300000
         L     14,RPLAAREA-IFGRPL(1)                                    08350000
         ST    1,RPL6RPL-ISTRPL6X(14)    STORE RPL ADDRESS TO APPC AREA 08400000
*                                                                       08450000
.CKACB   ANOP                                                           08500000
         AIF   ('&ACB' EQ '').CKCTL01                                   08550000
         IST6MCUA KWVAL=&ACB,LOC=RPLDACB-IFGRPL,BASEREG=1,             X08583300
               KW=ACB_ADDRESS                                           08616600
.*                                          STORE ACB ADDRESS IN RPL    08650000
.CKCTL01 ANOP                                                           08700000
.*                      ****  CONTROL=ALLOC  ****                       08750000
.*                                                                      08800000
         AIF   ('&CONTROL' NE 'ALLOC').ALEND                            08850000
         IST6MCAL AREA=&AREA,RECLEN=&RECLEN,OPTCD=&OPTCD,ECB=&ECB,     X08900000
               EXIT=&EXIT,BRANCH=&BRANCH,LOGMODE=&LOGMODE,             X08950000
               CONMODE=&CONMODE,USERFLD=&USERFLD,LUNAME=&LUNAME,       X09000000
               QUALIFY=&QUALIFY,CGID=&CGID,NETID=&NETID,               X09033300
               CONXMOD=&CONXMOD,RTSRTRN=&RTSRTRN,NAMEUSE=&NAMEUSE,     X09066600
               INVALKW=(FILL=&FILL,AREALEN=&AREALEN,CONVID=&CONVID,LOCKX09100000
               S=&LOCKS,CONFTXT=&CONFTXT,ARG=&ARG,TYPE=&TYPE,CD=&CD,SESX09150000
               SID=&SESSID,SESSIDL=&SESSIDL,DEACTYP=&DEACTYP,CRYPT=&CRYX09183300
               PT,LIST=&LIST,SENSE=&SENSE)                         @U3C 09216600
         AGO   .EXIT                                                    09250000
.ALEND   ANOP                                                           09300000
.*                      ****  CONTROL=DEALLOC(Q)  ****                  09333300
.*                                                                      09366600
         AIF   ('&CONTROL' EQ 'DEALLOCQ').DAQ                      @I1A 09400000
         AIF   ('&CONTROL' NE 'DEALLOC').DAEND                          09450000
.DAQ     ANOP                                                      @I1A 09466600
         IST6MCDA AREA=&AREA,RECLEN=&RECLEN,OPTCD=&OPTCD,ECB=&ECB,     X09500000
               EXIT=&EXIT,BRANCH=&BRANCH,CONVID=&CONVID,SENSE=&SENSE,  X09550000
               QUALIFY=&QUALIFY,CONMODE=&CONMODE,CONXMOD=&CONXMOD,     X09600000
               CRYPT=&CRYPT,CONTROL=&CONTROL,                          X09625000
               INVALP1=(LOGMODE=&LOGMODE,CONFTXT=&CONFTXT,LOCKS=&LOCKS,X09650000
               FILL=&FILL,AREALEN=&AREALEN,USERFLD=&USERFLD,TYPE=&TYPE,X09700000
               LUNAME=&LUNAME,ARG=&ARG,CD=&CD,SESSID=&SESSID),         X09733300
               INVALP2=(SESSIDL=&SESSIDL,DEACTYP=&DEACTYP,LIST=&LIST,  X09755500
               CGID=&CGID,NETID=&NETID,RTSRTRN=&RTSRTRN,               X09770300
               NAMEUSE=&NAMEUSE)                                   @U3C 09785100
         AGO   .EXIT                                                    09800000
.DAEND   ANOP                                                           09850000
.*                      ****  CONTROL=OPRCNTL  ****                     09900000
.*                                                                      09950000
         AIF   ('&CONTROL' NE 'OPRCNTL').OCEND                          10000000
         IST6MCOC AREALEN=&AREALEN,OPTCD=&OPTCD,CONFTXT=&CONFTXT,      X10050000
               EXIT=&EXIT,BRANCH=&BRANCH,RECLEN=&RECLEN,ECB=&ECB,      X10100000
               LUNAME=&LUNAME,QUALIFY=&QUALIFY,LOGMODE=&LOGMODE,       X10150000
               AREA=&AREA,ARG=&ARG,USERFLD=&USERFLD,LIST=&LIST,        X10200000
               NETID=&NETID,NAMEUSE=&NAMEUSE,                          X10225000
               INVALKW=(CONMODE=&CONMODE,SENSE=&SENSE,CONVID=&CONVID,LOX10250000
               CKS=&LOCKS,TYPE=&TYPE,FILL=&FILL,CD=&CD,SESSID=&SESSID,SX10300000
               ESSIDL=&SESSIDL,DEACTYP=&DEACTYP,CRYPT=&CRYPT,CGID=&CGIDX10333300
               ,CONXMOD=&CONXMOD,RTSRTRN=&RTSRTRN)                 @U3C 10366600
         AGO   .EXIT                                                    10400000
.OCEND   ANOP                                                           10450000
.*                      ****  CONTROL=PREPRCV  ****                     10500000
.*                                                                      10550000
         AIF   ('&CONTROL' NE 'PREPRCV').PREND                          10600000
         IST6MCPR AREA=&AREA,RECLEN=&RECLEN,OPTCD=&OPTCD,ECB=&ECB,     X10650000
               EXIT=&EXIT,BRANCH=&BRANCH,CONMODE=&CONMODE,CRYPT=&CRYPT,X10700000
               CONVID=&CONVID,QUALIFY=&QUALIFY,LOCKS=&LOCKS,           X10750000
               CONXMOD=&CONXMOD,                                       X10775000
               INVALP1=(USERFLD=&USERFLD,LOGMODE=&LOGMODE,FILL=&FILL,ARX10800000
               EALEN=&AREALEN,SENSE=&SENSE,LUNAME=&LUNAME,TYPE=&TYPE,COX10850000
               NFTXT=&CONFTXT,ARG=&ARG,CD=&CD,SESSID=&SESSID),         X10883300
               INVALP2=(SESSIDL=&SESSIDL,DEACTYP=&DEACTYP,LIST=&LIST,  X10905500
               CGID=&CGID,NETID=&NETID,RTSRTRN=&RTSRTRN,               X10920300
               NAMEUSE=&NAMEUSE)                                   @U3C 10935100
         AGO   .EXIT                                                    10950000
.PREND   ANOP                                                           11000000
.*                      ****  CONTROL=RECEIVE  ****                     11050000
.*                                                                      11100000
         AIF   ('&CONTROL' NE 'RECEIVE').REEND                          11150000
         IST6MCRE OPTCD=&OPTCD,ECB=&ECB,CONMODE=&CONMODE,FILL=&FILL,   X11200000
               EXIT=&EXIT,BRANCH=&BRANCH,AREA=&AREA,AREALEN=&AREALEN,  X11250000
               CONVID=&CONVID,QUALIFY=&QUALIFY,CD=&CD,CONXMOD=&CONXMOD,X11300000
               INVALP1=(RECLEN=&RECLEN,LUNAME=&LUNAME,SENSE=&SENSE,    X11328500
               TYPE=&TYPE,CONFTXT=&CONFTXT,ARG=&ARG,USERFLD=&USERFLD,  X11357000
               LOCKS=&LOCKS,LOGMODE=&LOGMODE,SESSID=&SESSID,           X11385500
               SESSIDL=&SESSIDL,DEACTYP=&DEACTYP,CRYPT=&CRYPT),        X11414000
               INVALP2=(LIST=&LIST,CGID=&CGID,NETID=&NETID,            X11442500
               RTSRTRN=&RTSRTRN,NAMEUSE=&NAMEUSE)                  @U4C 11471000
         AGO   .EXIT                                                    11500000
.REEND   ANOP                                                           11550000
.*                      ****  CONTROL=RCVFMH5  ****                     11600000
.*                                                                      11650000
         AIF   ('&CONTROL' NE 'RCVFMH5').RFEND                          11700000
         IST6MCRF BRANCH=&BRANCH,AREA=&AREA,AREALEN=&AREALEN,          X11750000
               USERFLD=&USERFLD,OPTCD=&OPTCD,ECB=&ECB,EXIT=&EXIT,      X11800000
               CONMODE=&CONMODE,CONXMOD=&CONXMOD,RTSRTRN=&RTSRTRN,     X11833300
               INVALP1=(LUNAME=&LUNAME,SENSE=&SENSE,CONFTXT=&CONFTXT,REX11866600
               CLEN=&RECLEN,CONVID=&CONVID,QUALIFY=&QUALIFY,FILL=&FILL,X11900000
               LOCKS=&LOCKS,LOGMODE=&LOGMODE,TYPE=&TYPE,ARG=&ARG),     X11930000
               INVALP2=(CD=&CD,SESSID=&SESSID,SESSIDL=&SESSIDL,DEACTYP=X11960000
               &DEACTYP,CRYPT=&CRYPT,LIST=&LIST,CGID=&CGID,NETID=&NETIDX11990000
               ,NAMEUSE=&NAMEUSE)                                  @U3C 12020000
         AGO   .EXIT                                                    12050000
.RFEND   ANOP                                                           12100000
.*                      ****  CONTROL=REJECT  ****                      12150000
.*                                                                      12200000
         AIF   ('&CONTROL' NE 'REJECT').RJEND                           12250000
         IST6MCRJ OPTCD=&OPTCD,ECB=&ECB,CONVID=&CONVID,SENSE=&SENSE,   X12300000
               EXIT=&EXIT,BRANCH=&BRANCH,SESSID=&SESSID,SESSIDL=&SESSIDX12333300
               L,QUALIFY=&QUALIFY,DEACTYP=&DEACTYP,CGID=&CGID,         X12366600
               INVALP1=(CONMODE=&CONMODE,USERFLD=&USERFLD,LOCKS=&LOCKS,X12400000
               LOGMODE=&LOGMODE,AREA=&AREA,AREALEN=&AREALEN,TYPE=&TYPE,X12450000
               FILL=&FILL,ARG=&ARG,CONFTXT=&CONFTXT,RECLEN=&RECLEN),   X12500000
               INVALP2=(LUNAME=&LUNAME,CD=&CD,CRYPT=&CRYPT,LIST=&LIST,NX12533300
               ETID=&NETID,CONXMOD=&CONXMOD,RTSRTRN=&RTSRTRN,          X12555500
               NAMEUSE=&NAMEUSE)                                   @U3C 12577700
         AGO   .EXIT                                                    12600000
.RJEND   ANOP                                                           12650000
.*                      ****  CONTROL=RESETRCV  ****                    12700000
.*                                                                      12750000
         AIF   ('&CONTROL' NE 'RESETRCV').RSEND                         12800000
         IST6MCRS CONMODE=&CONMODE,CONXMOD=&CONXMOD,OPTCD=&OPTCD,      X12850000
               ECB=&ECB,EXIT=&EXIT,BRANCH=&BRANCH,CONVID=&CONVID,      X12900000
               INVALP1=(AREALEN=&AREALEN,LOCKS=&LOCKS,USERFLD=&USERFLD,X12903300
               LOGMODE=&LOGMODE,RECLEN=&RECLEN,CONFTXT=&CONFTXT,LUNAME=X12906600
               &LUNAME,QUALIFY=&QUALIFY,FILL=&FILL,TYPE=&TYPE,SENSE=&SEX12909900
               NSE,AREA=&AREA,ARG=&ARG),                               X12913200
               INVALP2=(CD=&CD,SESSID=&SESSID,SESSIDL=&SESSIDL,DEACTYP=X12916500
               &DEACTYP,CRYPT=&CRYPT,LIST=&LIST,CGID=&CGID,NETID=&NETIDX12918700
               ,RTSRTRN=&RTSRTRN,NAMEUSE=&NAMEUSE)                 @U3C 12920900
         AGO   .EXIT                                                    12923100
.RSEND   ANOP                                                           12926400
.*                      ****  CONTROL=RCVEXPD  ****                     12926600
.*                                                                      12926800
         AIF   ('&CONTROL' NE 'RCVEXPD').RXEND                     @I2A 12927000
         IST6MCRX AREA=&AREA,AREALEN=&AREALEN,BRANCH=&BRANCH,          X12927200
               CONMODE=&CONMODE,CONVID=&CONVID,CONXMOD=&CONXMOD,       X12927400
               ECB=&ECB,EXIT=&EXIT,OPTCD=&OPTCD,QUALIFY=&QUALIFY,      X12927600
               INVALP1=(ARG=&ARG,CD=&CD,CGID=&CGID,CONFTXT=&CONFTXT,   X12927800
               CRYPT=&CRYPT,DEACTYP=&DEACTYP,FILL=&FILL,LIST=&LIST,    X12927900
               NAMEUSE=&NAMEUSE),                                      X12928000
               INVALP2=(LOCKS=&LOCKS,LOGMODE=&LOGMODE,LUNAME=&LUNAME,  X12928200
               NETID=&NETID,RECLEN=&RECLEN,RTSRTRN=&RTSRTRN,           X12928400
               SENSE=&SENSE,SESSID=&SESSID,SESSIDL=&SESSIDL,TYPE=&TYPE,X12928600
               USERFLD=&USERFLD)                                   @U3C 12928800
         AGO   .EXIT                                               @I2A 12929000
.RXEND   ANOP                                                      @I2A 12929200
.*                      ****  CONTROL=SETSESS  ****                     12929700
.*                                                                      12933000
         AIF   ('&CONTROL' NE 'SETSESS').SETEND                         12936300
         IST6MCSS OPTCD=&OPTCD,ECB=&ECB,EXIT=&EXIT,BRANCH=&BRANCH,     X12939600
               CONVID=&CONVID,SESSID=&SESSID,SESSIDL=&SESSIDL,         X12942900
               QUALIFY=&QUALIFY,                                       X12946200
               INVALP1=(AREALEN=&AREALEN,LOCKS=&LOCKS,USERFLD=&USERFLD,X12950000
               LOGMODE=&LOGMODE,RECLEN=&RECLEN,CONFTXT=&CONFTXT,LUNAME=X13000000
               &LUNAME,FILL=&FILL,TYPE=&TYPE,SENSE=&SENSE,AREA=&AREA), X13048300
               INVALP2=(ARG=&ARG,DEACTYP=&DEACTYP,CONMODE=&CONMODE,CD=&X13096600
               CD,CONXMOD=&CONXMOD,CRYPT=&CRYPT,LIST=&LIST,CGID=&CGID,NX13144900
               ETID=&NETID,RTSRTRN=&RTSRTRN,NAMEUSE=&NAMEUSE)      @U3C 13193300
         AGO   .EXIT                                                    13241800
.SETEND  ANOP                                                      @F2A 13245600
.*                      ****  CONTROL=SEND  ****                        13250000
.*                                                                      13300000
         AIF   ('&CONTROL' NE 'SEND').SEEND                             13350000
         IST6MCSE AREA=&AREA,RECLEN=&RECLEN,OPTCD=&OPTCD,ECB=&ECB,     X13400000
               EXIT=&EXIT,BRANCH=&BRANCH,SENSE=&SENSE,TYPE=&TYPE,      X13450000
               CONVID=&CONVID,QUALIFY=&QUALIFY,CONMODE=&CONMODE,       X13500000
               CONXMOD=&CONXMOD,CRYPT=&CRYPT,                          X13525000
               INVALP1=(LOCKS=&LOCKS,LUNAME=&LUNAME,FILL=&FILL,AREALEN=X13550000
               &AREALEN,USERFLD=&USERFLD,ARG=&ARG,LOGMODE=&LOGMODE,CONFX13600000
               TXT=&CONFTXT,CD=&CD,SESSID=&SESSID,SESSIDL=&SESSIDL),   X13633300
               INVALP2=(DEACTYP=&DEACTYP,LIST=&LIST,CGID=&CGID,        X13655500
               NETID=&NETID,RTSRTRN=&RTSRTRN,NAMEUSE=&NAMEUSE)     @U3C 13677700
         AGO   .EXIT                                                    13700000
.SEEND   ANOP                                                           13750000