* GOTO ASPLS;   /* PLS COMMENT FOR THE ASSEMBLER PART                   00050000
         MACRO                                                          00100000
&NAME    ASPL &DSECT=                                                   00150000
         LCLC &A                                                        00200000
         LCLC &B                                                        00250000
         LCLC &C                                                        00300000
         AGO   .ZZZ                                                     00350000
*        LICENSED MATERIALS - PROPERTY OF IBM                  @D51IDHB 00400000
*        THIS MACRO IS "RESTRICTED MATERIALS OF IBM"           @D51IDHB 00450000
*        5686-032 (C) COPYRIGHT IBM CORP. 1979, 1992           @D52LDHB 00500052
*        SEE COPYRIGHT INSTRUCTIONS                            @D51IDHB 00550000
.ZZZ     ANOP                                                           00600000
.* /* START OF SPECIFICATIONS **********************************        00650000
.*                                                                      00700000
.*01* MACRO NAME = ASPL                                                 00750000
.*                                                                      00800000
.*01* MACRO FORMAT = ASSEMBLER: (NAME) ASPL (DSECT=YES|NO)              00850000
.*                   PLS:       ?ASPL (BASED(YES|NO));                  00900000
.*                                                                      00950000
.*                   DEFAULTS ARE DSECT=NO AND BASED(NO)                01000000
.*                                                                      01050000
.*01* DESCRIPTIVE NAME = ASSIGN PARAMETER LIST (ASPL) REQUIRED          01100000
.*                       FOR ASSIGN MACRO (DSECT OR CONSTANTS)          01150000
.*                                                                      01200000
.*01* CHANGE ACTIVITY = NONE                                            01250000
.* SUPPORT MODE SETTING                                        @D52LDHB 01275052
.*                                                                      01300000
.* A000000-999999                                              @D36MDHV 01350000
.**** END OF SPECIFICATIONS ******************************************  01400000
         AIF   ('&DSECT' NE 'YES').CSECT                                01450000
&A       SETC  'S'                                                      01500000
&B       SETC  ' '                                                      01550000
**********************************************************************  01600000
* DSECT  FOR ASSIGN PARAMETER LIST (ASPL)                               01650000
**********************************************************************  01700000
         SPACE 2                                                        01750000
&NAME    DSECT                                                          01800000
ASGLIST  DS    0XL5              ASSIGN PARAMETER LIST                  01850000
         AGO   .CSECT1                                                  01900000
.CSECT   ANOP                                                           01950000
&A       SETC  'C'                                                      02000000
&B       SETC  '''00'''                                                 02050000
**********************************************************************  02100000
* ASSIGN PARAMETER LIST (ASPL)                                          02150000
**********************************************************************  02200000
         SPACE 2                                                        02250000
&NAME    DS    0XL5              ASSIGN PARAMETER LIST                  02300000
.CSECT1  ANOP                                                           02350000
ASGFUNCT D&A   XL1&B             ASSIGN FUNCTION CODE                   02383352
ASGDPT   EQU   X'80'             DISK-PROGR.UNIT-TEMP                  X02416652
                                 CUU DEFINED, NO LOG.UNIT DEFINED       02449952
ASGDST   EQU   X'84'             DISK-SYST.UNIT-TEMP                   X02483252
                                 CUU DEFINED, NO LOG.UNIT DEFINED       02516552
ASGDSP   EQU   X'8C'             DISK-SYST.UNIT-PERM                   X02549852
                                 CUU DEFINED, NO LOG.UNIT DEFINED       02583152
ASGTPT   EQU   X'40'             TAPE-PROGR.UNIT-TEMP,NO MODE DEFINED  X02616452
                                 NO CUU DEFINED, NO LOG.UNIT DEFINED    02649752
ASGTPTM  EQU   X'60'             ASGTPT WITH MODE SPECIFICATION@D52LDHB 02683052
*                                                                       02716352
ASGTPD   EQU   X'42'             TAPE-PROGR.UNIT-TEMP,NO MODE DEFINED  X02749652
                                 CUU DEFINED, NO LOG. UNIT DEFINED      02782952
ASGTPDM  EQU   X'62'             ASGTPD WITH MODE SPECIFICATION@D52LDHB 02816252
*                                                                       02849552
ASGTPS   EQU   X'43'             TAPE-PROGR.UNIT-TEMP,NO MODE DEFINED  X02882852
                                 CUU DEFINED,    LOG. UNIT DEFINED     X02916152
                                 LOG.UNIT MUST BE TEMP+PERM UNASSIGNED  02949452
ASGTPSM  EQU   X'63'             ASGTPS WITH MODE SPECIFICATION@D52LDHB 02982752
*                                                                       03016052
ASGUAP   EQU   X'28'             UNASSIGN-PROGR.UNIT                    03049352
ASGUAS   EQU   X'2C'             UNASSIGN-SYST.UNIT                     03082652
ASGCHG   EQU   X'10'             CHANGE-TEMP-TO-PERM                    03115952
ASGURT   EQU   X'02'             NOT-DISK/TAPE-PRG.UN.TMP.     @D37CDWS 03149252
*                                CUU DEFINED, NO LOG. UNIT DEFINED      03182552
ASGUEX   EQU   X'03'             ASGURT + ADDITIONAL INFORMATION        03215852
ASGLUNO  DS    0XL2              LOGICAL UNIT NUMBER                    03249152
ASGCLASS D&A   XL1&B             LOGICAL UNIT CLASS                     03282452
ASGPROG  EQU   X'01'             PROGRAMMER CLASS                       03315752
ASGSYST  EQU   X'00'             SYSTEM CLASS                           03349052
ASGLUNDX D&A   XL1&B             LOGICAL UNIT INDEX                     03382352
ASGCUU   D&A   XL2&B             PHYSICAL UNIT NUMBER                   03415652
ASGLNG   EQU   *-ASGFUNCT        LENGTH OF ASPL W/O ADDTNL INFO@D21WDWS 03450000
ASGCODE  D&A   XL1&B             ADDITIONAL INFORMATION        @D21WDWS 03483352
ASGMODE  D&A   XL1&B             MODE FOR TAPE UNITS           @D52LDHB 03516652
ASGEXCLU EQU   X'01'             EXCLUSIVE I/O ASSIGNMENT      @D21WDWS 03550000
ASGLNGE  EQU   *-ASGFUNCT        LENGTH OF ASPL WITH ADDTNL INF@D21WDWS 03600000
*                                                                       03650000
*   RETURN CODES RETURNED BY ASSIGN MACRO IN REGISTER 15                03700000
*                                                                       03750000
ASGOKAY  EQU   X'00'             ASSIGNMENT SUCCESSFUL                  03800000
ASGNOLUB EQU   X'04'             NO FREE LUB ENTRY FOUND                03850000
ASGNOCUU EQU   X'08'             CUU NOT FOUND IN PUB TABLE             03900000
ASGNODSK EQU   X'0C'             CUU HAS WRONG DEVICE TYPE     @D37CDWS 03950000
ASGDOWN  EQU   X'10'             CUU IS DOWN                            04000000
ASGNOTAP EQU   X'18'             NO FREE TAPE UNIT FOUND                04050000
ASGBADLU EQU   X'1C'             INVALID LOGICAL UNIT FOR UNASSIGN      04100000
ASGRSERV EQU   X'20'             CUU RESERVED BY SPACE MANAGEMENT       04150000
*                                OR BY PENDING MOUNT REQUEST            04200000
ASGBADFU EQU   X'24'             INVALID FUNCTION CODE                  04250000
ASGNOVIS EQU   X'28'             NO GETVIS SPACE AVAILABLE              04300000
ASGNOTAS EQU   X'2C'             DEVICE TO BE UNASSIGNED IS NO ASSIGNED 04350052
ASGOWNED EQU   X'30'             DEVICE IS OWNED BY OTHER PART. OR     *04400000
                                 BY OWN PART. AND EXCL. REQ.   @D21WDWS 04450000
ASGCONFL EQU   X'34'             CONFLICTING I/O ASSIGNMENT    @D37CDWS 04500000
*                                NOT ASSIGNED                           04550000
ASGINVLU EQU   X'38'             SPECIFIED LUB IS INVALID OR   @D51IDHB 04600000
*                                NOT FREE (FUNCT'N ASGTPS ONLY)@D51IDHB 04650000
ASGNOMOD EQU   X'3C'             NO DEVICE WITH THE SPECIFIED  @D52LDHB 04660052
*                                MODE WAS FOUND                @D52LDHB 04670052
ASGNTAMO EQU   X'40'             NO TAPE UNIT FOUND FOR THE    @D52LDHB 04680052
*                                SPECIFIED MODE                @D52LDHB 04690052
         SPACE 2                                                        04700000
         MEND                                                           04750000
*  END OF PLS COMMENT*/                                                 04800000
* ASPLS :;                                                              04850000
* %ASPL : MACRO KEYS(BASED);                                            04900000
* DCL (A,B,C,D,E) FIXED;                                                04950000
* A = 2;                                                                05000000
* B = 3;                                                                05050000
* C = 4;                                                                05100000
* D = 38;                                                               05150000
* ANS SKIP COL(A);                                                      05200000
* ANS('/***********************************************************/')  05250000
* COL(A) SKIP;                                                          05300000
* ANS('/*****     ASSIGN PARAMETER LIST (ASPL)                 ****/')  05350000
* COL(A) SKIP;                                                          05400000
* ANS('/***********************************************************/')  05450000
* COL(A) SKIP;                                                          05500000
* ANS('/* JOB CONTROL - ASPL - 5686-032                  @D51IDHB */')  05550000
* COL(A) SKIP;                                                          05600000
* ANS ('DECLARE ')                         SKIP COL(A);                 05650000
* IF NUMBER(BASED) = 0                                                  05700000
*    THEN GOTO ASPLS1;                                                  05750000
* IF BASED(1) ¬= 'YES'                                                  05800000
*    THEN GOTO ASPLS1;                                                  05850000
* ANS ('1 ASGLIST BASED,')                 SKIP COL(A);                 05900000
* ANS ('/* ASSIGN PARAMETER LIST      */') COL(D);                      05950000
* GOTO ASPLS2;                                                          06000000
* ASPLS1:                                                               06050000
* ANS ('1 ASGLIST,')                       SKIP COL(A);                 06100000
* ANS ('/* ASSIGN PARAMETER LIST      */') COL(D);                      06150000
* ASPLS2:                                                               06200000
* ANS ('2 ASGFUNCT BIT(8),')               SKIP COL(B);                 06250000
* ANS ('/* ASSIGN FUNCTION CODE       */') COL(D);                      06300000
* ANS ('2 ASGLUNO BIT(16),')               SKIP COL(B);                 06350000
* ANS ('/* LOGICAL UNIT NUMBER        */') COL(D);                      06400000
* ANS ('3 ASGCLASS BIT(8),')               SKIP COL(C);                 06450000
* ANS ('/* LOGICAL UNIT CLASS         */') COL(D);                      06500000
* ANS ('3 ASGLUNDX BIT(8),')               SKIP COL(C);                 06550000
* ANS ('/* LOGICAL UNIT INDEX         */') COL(D);                      06600000
* ANS ('2 ASGCUU BIT(16),')                SKIP COL(B);   /*@D21WDWS*/  06650000
* ANS ('/* PHYSICAL UNIT NUMBER       */') COL(D);                      06700000
* ANS ('2 ASGCODE BIT(8),')               SKIP COL(B);    /*@D21WDWS*/  06750052
* ANS ('/* ADDITIONAL INFORMATION     */') COL(D);        /*@D21WDWS*/  06800000
* ANS ('2 ASGMODE BIT(8);')               SKIP COL(B);    /*@D52LDHB*/  06816652
* ANS ('/* MODE TO BE SET FOR TAPES   */') COL(D);        /*@D52LDHB*/  06833252
* ANS('@SPACE;') SKIP COL(A);                                           06850000
*ANS('/************************************************************/')  06900000
*COL(A) SKIP;                                                           06950000
*ANS('/*****     ASSIGN FUNCTION CODES                         ****/')  07000000
*COL(A) SKIP;                                                           07050000
*ANS('/************************************************************/')  07100000
*COL(A) SKIP;                                                           07150000
* ANS (' DCL ')                            SKIP COL(A);                 07200000
* ANS ('ASGDPT BIT(8) CONSTANT(''80''X),') SKIP COL(B);                 07250000
* ANS ('/* DISK-PROG.UNIT-TEMP        */') COL(D);                      07300000
* ANS ('/* CUU DEFINED                */') SKIP COL(D);                 07325052
* ANS ('ASGDST BIT(8) CONSTANT(''84''X),') SKIP COL(B);                 07350000
* ANS ('/* DISK-SYST.UNIT-TEMP        */') COL(D);                      07400000
* ANS ('/* CUU DEFINED                */') SKIP COL(D);                 07425052
* ANS ('ASGDSP BIT(8) CONSTANT(''8C''X),') SKIP COL(B);                 07450000
* ANS ('/* DISK-SYST.UNIT-PERM        */') COL(D);                      07500000
* ANS ('/* CUU DEFINED                */') SKIP COL(D);                 07525052
* ANS ('ASGTPT BIT(8) CONSTANT(''40''X),') SKIP COL(B);                 07550000
* ANS ('/* TAPE-PROG.UNIT-TEMP        */') COL(D);                      07600000
* ANS ('/* NO CUU DEFINED            */') SKIP COL(D);                  07608352
* ANS ('ASGTPTM BIT(8) CONSTANT(''60''X),') SKIP COL(B);  /*@D52LDHB*/  07616652
* ANS ('/* ASGTPT WITH MODE SPECIFICATION*/') COL(D);     /*@D52LDHB*/  07633252
* ANS ('ASGTPD BIT(8) CONSTANT(''42''X),') SKIP COL(B);                 07650000
* ANS ('/* TAPE-PROG.UNIT-TEMP        */') COL(D);                      07672252
* ANS ('/* CUU DEFINED                */') SKIP COL(D);                 07694452
* ANS ('ASGTPDM BIT(8) CONSTANT(''62''X),') SKIP COL(B);  /*@D52LDHB*/  07716652
* ANS ('/* ASGTPD WITH MODE SPECIFICATION*/') COL(D);     /*@D52LDHB*/  07733252
* ANS ('ASGTPS BIT(8) CONSTANT(''43''X),') SKIP COL(B);   /*@D51IDHB*/  07750000
* ANS ('/* TAPE-PROG.UNIT-TEMP-DEFINED-CUU-DEFINED-LUB*/') COL(D);      07800000
* ANS ('/* LUB MUST BE TEMP + PERM UNASSIGNED         */') SKIP COL(D); 07850052
* ANS ('ASGTPSM BIT(8) CONSTANT(''63''X),') SKIP COL(B);  /*@D52LDHB*/  07866652
* ANS ('/* ASGTPS WITH MODE SPECIFICATION*/') COL(D);     /*@D52LDHB*/  07883252
* ANS ('ASGUAP BIT(8) CONSTANT(''28''X),') SKIP COL(B);                 07900000
* ANS ('/* UNASSIGN-PROG.UNIT         */') COL(D);                      07950000
* ANS ('ASGUAS BIT(8) CONSTANT(''2C''X),') SKIP COL(B);                 08000000
* ANS ('/* UNASSIGN-SYST.UNIT         */') COL(D);                      08050000
* ANS ('ASGCHG BIT(8) CONSTANT(''10''X),') SKIP COL(B);                 08100000
* ANS ('/* CHANGE-TEMP-TO-PERM        */') COL(D);                      08150000
* ANS ('ASGURT BIT(8) CONSTANT(''02''X),') SKIP COL(B);   /*@D21WDWS*/  08200000
* ANS ('/* NOT-DISC/TAPE-UNIT-TEMP    */') COL(D);        /*@D21WDWS*/  08250000
* ANS ('/* CUU DEFINED                */') SKIP COL(D);                 08275052
* ANS ('ASGUEX BIT(8) CONSTANT(''03''X);') SKIP COL(B);   /*@D21WDWS*/  08300000
* ANS ('/* ASGURT + ADDITIONAL INFO   */') COL(D);        /*@D21WDWS*/  08350000
* ANS('@SPACE;') SKIP COL(A);                                           08400000
*ANS('/************************************************************/')  08450000
*COL(A) SKIP;                                                           08500000
*ANS('/*****     ASSIGN RETURN CODES (IN REGISTER 15)          ****/')  08550000
*COL(A) SKIP;                                                           08600000
*ANS('/************************************************************/')  08650000
*COL(A) SKIP;                                                           08700000
* ANS (' DCL ')                            SKIP COL(A);                 08750000
* ANS ('ASGOKAY  BIT(8) CONSTANT(''00''X),') SKIP COL(B);               08800000
* ANS ('/* ASSIGNMENT SUCCESSFUL      */') COL(D);                      08850000
* ANS ('ASGNOLUB BIT(8) CONSTANT(''04''X),') SKIP COL(B);               08900000
* ANS ('/* NO FREE LUB FOUND          */') COL(D);                      08950000
* ANS ('ASGNOCUU BIT(8) CONSTANT(''08''X),') SKIP COL(B);               09000000
* ANS ('/* CUU NOT FOUND IN PUB TABLE */') COL(D);                      09050000
* ANS ('ASGNODSK BIT(8) CONSTANT(''0C''X),') SKIP COL(B);               09100000
* ANS ('/* CUU HAS WRONG DEVICE TYPE  */') COL(D);                      09150000
* ANS ('ASGDOWN  BIT(8) CONSTANT(''10''X),') SKIP COL(B);               09200000
* ANS ('/* CUU IS DOWN                */') COL(D);                      09250000
* ANS ('ASGNOJIB BIT(8) CONSTANT(''14''X),') SKIP COL(B);               09300000
* ANS ('/* NO JIB AVAIL. FOR TEMP ASG */') COL(D);                      09350000
* ANS ('ASGNOTAP BIT(8) CONSTANT(''18''X),') SKIP COL(B);               09400000
* ANS ('/* NO FREE TAPE UNIT FOUND    */') COL(D);                      09450000
* ANS ('ASGBADLU BIT(8) CONSTANT(''1C''X),') SKIP COL(B);               09500000
* ANS ('/* INVALID LOGICAL UNIT FOR UA*/') COL(D);                      09550000
* ANS ('ASGRSERV BIT(8) CONSTANT(''20''X),') SKIP COL(B);               09600000
* ANS ('/* CUU RESERVED BY SPACE MGMT */') COL(D);                      09650000
* ANS ('/* OR MOUNT REQUEST PENDING   */') COL(D);                      09700000
* ANS ('ASGBADFU BIT(8) CONSTANT(''24''X),') SKIP COL(B);               09750000
* ANS ('/* INVALID FUNCTION CODE      */') COL(D);                      09800000
* ANS ('ASGNOVIS BIT(8) CONSTANT(''28''X),') SKIP COL(B);               09850000
* ANS ('/* NO GETVIS SPACE AVAILABLE  */') COL(D);                      09900000
* ANS ('ASGNOTAS BIT(8) CONSTANT(''2C''X),') SKIP COL(B);               09950000
* ANS ('/* UNIT TO BE UNASSIGNED IS   */') COL(D);                      10000000
* ANS ('/* NOT ASSIGNED               */') COL(D);                      10050000
* ANS ('ASGOWNED BIT(8) CONSTANT(''30''X),') SKIP COL(B);               10100000
* ANS ('/* UNIT OWNED BY OTHER PARTITN*/') COL(D);                      10150000
* ANS ('/* OR OWNED BY OWN PARTITION  */') COL(D);                      10200000
* ANS ('/* AND EXCLUSIVE REQUESTED    */') COL(D);                      10250000
* ANS ('ASGCONFL BIT(8) CONSTANT(''34''X),') SKIP COL(B); /*@D51IDHB*/  10300000
* ANS ('/* CONFLICTING I/O ASSIGNMENT */') COL(D);                      10350000
* ANS ('ASGINVLU BIT(8) CONSTANT(''38''X),') SKIP COL(B); /*@D52LDHB*/  10400052
* ANS ('/* LUB NOT VALID OR NOT FREE (ASGTPS) */') COL(D);/*@D51IDHB*/  10450000
* ANS ('ASGNOMOD BIT(8) CONSTANT(''3C''X),') SKIP COL(B); /*@D52LDHB*/  10458352
* ANS ('/* NO SUPPORT OF DEFINED MODE FOR DEFINED DEVICE*/') COL(D);    10466652
*                                                         /*@D52LDHB*/  10474952
* ANS ('ASGNTAMO BIT(8) CONSTANT(''40''X);') SKIP COL(B); /*@D52LDHB*/  10483252
* ANS ('/* NO DEVICE WITH SPEC. MODE FOUND    */') COL(D);/*@D52LDHB*/  10491552
* ANS('@SPACE;') SKIP COL(A);                                           10500000
*ANS('/************************************************************/')  10550000
*COL(A) SKIP;                                             /*@D21WDWS*/  10600000
*ANS('/*****     ADDITIONAL INFO. IN ASGCODE FOR          @D21WDWS*/')  10650000
*COL(A) SKIP;                                             /*@D21WDWS*/  10700000
*ANS('/*****     SPECIAL REQUESTS                         @D21WDWS*/')  10750000
*COL(A) SKIP;                                             /*@D21WDWS*/  10800000
*ANS('/************************************************************/')  10850000
*COL(A) SKIP;                                                           10900000
* ANS (' DCL ')                            SKIP COL(A);   /*@D21WDWS*/  10950000
* ANS ('ASGEXCLU BIT(8) CONSTANT(''01''X);') SKIP COL(B); /*@D21WDWS*/  11000000
* ANS ('/* EXCLUSIVE I/O ASSIGNMENT */') COL(D);          /*@D21WDWS*/  11050000
* %END;                                                                 11100000
