         MACRO                                                          00050000
&NAME    ASSIGN &ASPL=,&SAVE=                                           00100000
.*********************************************************************  00150000
.*                                                                      00200000
.*         IBM DISK OPERATING SYSTEM                                    00250000
.*         JOB CONTROL - 5686-007-06-C44                                00300000
.*                                                                      00350000
.*         THIS MACRO IS "RESTRICTED MATERIALS OF IBM"                  00400000
.*         ALL RIGHTS RESERVED                                          00450000
.*         5686-007 (C) COPYRIGHT IBM CORP 1979,1989                    00500000
.*         LICENSED MATERIALS-PROPERTY OF IBM                           00550000
.*         SEE COPYRIGHT INSTRUCTIONS, G120-2083                        00600000
.*                                                                      00650000
.*********************************************************************  00700000
.*                                                                      00750000
*  JOB CONTROL - ASSIGN - 5686-007-06 - VSE/AF 4.1.0                    00800000
.*                                                                      00850000
.*********************************************************************  00900000
.* MACRO NAME: ASSIGN (VSE/AF)                                          00950000
.*                                                                      01000000
.* DESCRIPTIVE NAME: INTERFACE MACRO TO CALL ASSIGN PROCESSOR $IJBASGN  01050000
.*                                                                      01100000
.*                                                                      01150000
.* FUNCTION:                                                            01200000
.*      - LOAD ADDRESS OF ASPL IN REGISTER 1                            01250000
.*      - LOAD ADDRESS OF SAVEAREA IN REGISTER 13                       01300000
.*      - LOAD ADDRESS OF $IJBASGN INTO REGISTER 15                     01350000
.*      - BRANCH TO $IJBASGN - BALR 14,15                               01400000
.*                                                                      01450000
.* DEPENDENCIES: THOSE OF $IJBASGN WHICH IS CALLED                      01500000
.*                                                                      01550000
.* RESTRICTIONS: THOSE OF $IJBASGN WHICH IS CALLED                      01600000
.*                                                                      01650000
.* PROCESSOR: ASSEMBLER                                                 01700000
.*                                                                      01750000
.* MODULE SIZE: NO SIZE LIMITATIONS                                     01800000
.*                                                                      01850000
.* ATTRIBUTES: REENTRANT                                                01900000
.*                                                                      01950000
.* REGISTER CONVENTIONS:                                                02000000
.*    REGISTERS 0,1,13,14, AND 15 ARE DESTROYED                         02050000
.*                                                                      02100000
.* INPUT:                                                               02150000
.* <NAME>   ASSIGN     ASPL = ADDRESS / (REGISTER),                     02200000
.*                     SAVE = ADDRESS / (REGISTER)                      02250000
.*                                                                      02300000
.* OUTPUT:                                                              02350000
.*    SEE TOPIC FUNCTION                                                02400000
.*                                                                      02450000
.* EXIT:                                                                02500000
.*    BRANCH TO $IJBASGN (DYNAMIC DEVICE ASSIGN)                        02550000
.*                                                                      02600000
.* CHANGE ACTIVTIY:                                                     02650000
.* ADAPT TO FAMILY API                                         @D62ADWS 02700000
.* USE BASSM TO ALLOW FOR CALLERS RESIDING ABOVE THE LINE      @D67PDFM 02710002
.* A000000-999999                                              @D36MDHV 02750000
.********************************************************************** 02800000
.*                                                                      02850000
         CNOP  0,4                      ALIGN TO FULLWORD               02900000
&NAME    DS    0H                                                       02950000
         AIF   ('&SAVE' EQ '').ERROR1           IS PARM MISSING?        03000000
         AIF   ('&SAVE'(1,5) EQ '(13)').NAME    REGISTER SPECIFICATION? 03050000
         AIF   ('&SAVE'(1,1) EQ '(').REG13      REGISTER SPECIFICATION? 03100000
         AIF   (T'&SAVE EQ 'N').ERROR4          NAME A DIGIT ?          03150000
         AIF   (K'&SAVE GT 8).ERROR4            NAME > 8 CHARACTERS   ? 03200000
         LA    13,&SAVE                 GET SAVEAREA ADDRESS            03250000
         AGO   .NAME                                                    03300000
.REG13   ANOP                                                           03350000
         LR    13,&SAVE(1)              GET SAVEAREA ADDRESS            03400000
.NAME    AIF   ('&ASPL' EQ '').ERROR1           IS PARM MISSING?        03450000
         AIF   ('&ASPL'(1,1) EQ '(').REG        REGISTER SPECIFICATION? 03500000
         AIF   (T'&ASPL EQ 'N').ERROR2          NAME A DIGIT ?          03550000
         AIF   (K'&ASPL GT 8).ERROR2            NAME > 8 CHARACTERS   ? 03600000
         AGO   .GEN                                                     03650000
.REG     ANOP                                                           03700000
         LR    14,&ASPL(1)              SAVE PARM LIST ADDR             03750000
.GEN     ANOP                           ALIGN TO FULLWORD               03800000
         ILOAD $IJBASGN                                        @D62ADWS 03850000
         LR    15,1                     SAVE ENTRY POINT                03900000
         AIF   ('&ASPL'(1,1) EQ '(').REG1       REGISTER SPECIFICATION? 03950000
         LA    1,&ASPL                  GET ADDR OF PARM LIST           04000000
         AGO   .SKIP                                                    04050000
.REG1    ANOP                                                           04100000
         LR    1,14                     GET ADDR OF PARM LIST           04150000
.SKIP    ANOP                                                           04200000
         BASSM 14,15                    CALL ASSIGN PROCESSOR  @D67PDFM 04250002
         MEXIT                                                          04300000
.*                                                                      04350000
.ERROR1 MNOTE 8,'PARAMETER MISSING. EXPANSION TERMINATED.'              04400000
         MEXIT                                                          04450000
.ERROR2 MNOTE 8,'SYNTAX ERROR IN ASPL PARM. EXPANSION TERMINATED.'      04500000
         MEXIT                                                          04550000
.ERROR4 MNOTE 8,'SYNTAX ERROR IN SAVE PARM. EXPANSION TERMINATED.'      04600000
         MEND                                                           04650000
