         MACRO                                                          00050000
&NAME    ASYSCOM   &R                                                   00100000
         LCLC  &LR                                                      00150000
.*       IBM DISK OPERATING SYSTEM                                      00200000
*        SUPERVISOR - ASYSCOM - 5686-066                                00250061
         AGO   .ZZZ                                                     00300000
*        LICENSED MATERIALS - PROPERTY OF IBM                           00350061
*        THIS MACRO IS "RESTRICTED MATERIALS OF IBM"                    00400061
*        5686-066 (C) COPYRIGHT IBM CORP. 1974, 1995                    00450061
*        SEE COPYRIGHT INSTRUCTIONS                                     00500061
.ZZZ     ANOP                                                           00600000
         AIF   (T'&R NE 'O').REG                                        00650000
&LR      SETC  '1'                DEFAULT REGISTER 1                    00700000
         AGO   .GEN                                                     00750000
.REG     ANOP                                                           00800000
&LR      SETC  '&R'                                                     00850000
.GEN     ANOP                                                           00900000
&NAME    L     &LR,X'80'(,0)       SETUP SYSCOM POINTER                 00950061
         MEND                                                           01000000
