*% GOTO  AVRPLS;                /* ASSEMBLER MACRO IN COMMENT           00050000
         MACRO                                                          00100000
&NAME    AVRLIST &DSECT=YES,&DEVICE=NO                                  00150000
         LCLC  &CL                                                      00200000
***************************************************************@D368DAP 00250000
*                                                              @D368DAP 00300000
*.       IBM DISK OPERATING SYSTEM                             @D368DAP 00350000
*        SUPERVISOR - AVRLIST - 5686-066-06                    @D51GDAP 00400001
         AGO   .NOCOPY                                         @D368DAP 00450000
*        LICENSED MATERIALS-PROPERTY OF IBM                    @D368DAP 00500000
*        THIS MACRO IS "RESTRICTED MATERIALS OF IBM"           @D31UDMZ 00550000
*        5686-032 (C) COPYRIGHT IBM CORP. 1979, 2001           @D61ADAP 00600001
*        SEE COPYRIGHT INSTRUCTIONS                            @D31UDMZ 00650000
.NOCOPY  ANOP                                                  @D368DAP 00700000
***************************************************************@D368DAP 00750000
.* /* START OF SPECIFICATIONS ****                                      00800000
.*01  MODULE-TYPE = MACRO                                               00850000
.*01  NOTES       = CHANGE ACTIVIY                                      00900000
.*    A000000-999999                                           @D35VDEP 00950000
.*    NEW FBA DEVICE SUPPORT                                   @D14COM1 01000000
.*    TAPE GETVCE / MODVCE SUPPORT            (SPE DY37265)    @D21LDRP 01050000
.*    DUAL COPY SUPPORT                                        @D31ODAP 01100000
.*    ADOPTIONS FOR 5.1.0                                      @D51GDAP 01150000
.*    CHANGES FOR 3494 LIBRARY SUPPORT                         @D61ADAP 01175001
.*    CHANGES FOR 3494 LIBRARY SUPPORT - PLS PART              @D61ADMK 01187501
.*02    PROCESSOR = ASSEMBLER                                           01200000
.**** END OF SPECIFICATIONS ***/                                        01250000
         SPACE 2                                                        01300000
         AIF   ('&DSECT' EQ 'YES').AVR001                               01350000
AVRADR   DS    0D                                                       01400000
         AGO   .AVR002       PRODUCE BODY OF LIST                       01450000
.AVR001  ANOP                PROVIDE A DSECT                            01500000
AVRADR   DSECT ,             GETVCE OUTPUT FORMAT                       01550000
.AVR002  ANOP                BODY OF LIST OR DSECT                      01600000
         SPACE                                                          01650000
         AIF   ('&NAME' EQ '').AVR003                                   01700000
         AIF   ('&NAME' EQ 'AVRADR').AVR003                             01750000
&NAME    EQU   *                                                        01800000
.AVR003  ANOP                                                           01850000
AVRVOLC  EQU   *             VOLUME CHARACTERISTICS                     01900000
AVRPUB   DS    A             ADDRESS OF PHYSICAL UNIT BLOCK             01950000
AVRVOLID DS    CL6           VOLUME IDENTIFIER                          02000000
AVRFLAG  DS    X             FLAG BYTE                                  02050000
AVREXTFL EQU   X'80'         EXTENTION AVAILABLE                        02100000
AVRSHR   EQU   X'40'         DEVICE IS SHARED                  @D36SDAP 02150000
AVRRSV   EQU   X'20'         DEVICE IS RESERVED                @D356DAP 02200000
AVRCOPY  EQU   X'10'         DEVICE A COPY                     @D31ODAP 02250000
AVRREMV  EQU   X'08'         DEVICE HAS REMOVABLE MEDIA                 02300000
AVRCMSV  EQU   X'04'         DEVICE IS A CMS DISK              @D21LDAP 02350000
AVRNLNO  EQU   X'02'         AVRLNO IS NOT VALID                        02400000
AVRNVOL  EQU   X'01'         VOLID INFORMATION IS NOT VALID             02450000
*                            E.G NO VOL1 LABEL                          02500000
AVRTYPE  DS    X             FORMAT OF DEVICE CHARACTERISTICS           02550000
AVRFBA   EQU   X'01'         FBA DEVICE                                 02600000
AVRCKD   EQU   X'02'         CKD DEVICE                                 02650000
AVRRPS   EQU   X'03'         CKD DEVICE WITH RPS                        02700000
AVRECKD  EQU   X'04'         ECKD DEVICE                       @D51EDAP 02750000
AVRTAPE  EQU   X'20'         TAPE DEVICE                       @D21LDRP 02800000
AVRVTOC  DS    0XL5          DASD ADDRESS OF VTOC              @D51EDAP 02850000
AVRVCC   DS    XL2           CKD CYLINDER NO.                           02900000
AVRVHH   DS    XL2           CKD TRACK NO.                              02950000
AVRVR    DS    X             CKD RECORD NO.                             03000000
AVRCDCST DS    X             CKD DEVICE STATUS                 @D51EDAP 03050000
AVRNOWRT EQU   X'80'         VM DEVICE WITH READ ONLY          @D51EDAP 03100000
         ORG   AVRVTOC       FBA FORMAT FOR VTOC ADDR.                  03150000
AVRVCI   DS    X             BLOCKS PER CONTROL INTERVAL                03200000
AVRVNUM  DS    XL4           FBA BLOCK NO. OF VTOC                      03250000
AVRFDCST DS    X             FBA DUAL COPY STATUS              @D31..AP 03300000
         ORG   AVRVTOC       TAPE INFORMATION                           03350000
AVRTLSEQ DS    XL3           LIBRARY SEQUENCE NUMBER           @D61ADAP 03375001
AVRTLSID DS    XL1           LIBRARY SUBSYTEM-ID               @D61ADAP 03400001
AVRTINFO DS    XL2           RESERVED FOR FUTURE EXTENTION     @D61ADAP 03425001
AVRLNO   DS    XL2           LOGICAL UNIT NO. (AS IN CCB)               03450000
AVRDEVC  DS    0X            DEVICE TYPE CHARACTERISTICS                03500000
         AIF   ('&DEVICE' EQ 'NO').AVR007  NO DEVICE ENTRY              03550000
&CL      SETC  'DCT'         SET FIRST 3 CHAR.OF DCT-LABELS TO DCT      03600000
         AIF   ('&DEVICE' EQ 'YES').AVR006 DCTENTRY STARTS WITH DCT     03650000
         AIF   ('&DEVICE' EQ 'SUBSYS').AVRSUBS                 @D52VDAP 03675001
&CL      SETC  'IJB'         SET FIRST 3 CHAR. TO IJB (DEFAULT)         03716601
         AIF   ('&DEVICE' EQ 'IJB').AVR006 DEFAULT CALL                 03758201
         MNOTE 3,'INVALID SPECIFICATION, DEVICE=&CL ASSUMED'            03800000
.AVR006  ANOP                                                           03850000
         DCTENTRY DSECT=NO,LABEL=&CL                                    03900000
         AGO   .AVR007                                         @D52VDAP 03912501
.AVRSUBS ANOP                                                  @D52VDAP 03925001
         DCTENTRY DSECT=NO,LABEL=&CL,SUBSYS=YES                @D52VDAP 03937501
.AVR007  ANOP                                                           03950000
AVRLEN   EQU   *-AVRADR      LENGTH OF OUTPUT LIST                      04000000
AVRILNG  EQU   12            LENGTH OF INPUT PARAMETER LIST             04050000
         SPACE                                                          04100000
*        RETURN CODES                                                   04150000
AVRGOOD  EQU   0             ALL DATA RETURNED                          04200000
AVRNOLNO EQU   4             WAS UNABLE TO READ VOL1 LABEL              04250000
*                            CHECK FIELD AVRFLAG                        04300000
AVRNOVOL EQU   8             VOLUME NOT MOUNTED                         04350000
AVRNOASG EQU   8             LOGICAL UNIT NOT ASSIGNED                  04400000
AVRNDASD EQU   8             DEVICE NOT DASD                            04450000
AVRIGN   EQU   12            LOGICAL UNIT IS ASSIGNED 'IGNORE'          04500000
AVRNOTUP EQU   16            DEVICE IS NOT OPERATIONAL                  04550000
AVRBPL   EQU   20            BAD INPUT PARAMETER LIST                   04600000
AVRNOTDF EQU   24            ASSIGNED UNIT IS DIFFERENT CLASS  @D21LDRP 04650000
AVRNRDY  EQU   28            DEVICE IS NOT READY                        04700000
         SPACE 2                                                        04750000
         MEND                                                           04800000
*        */                                                             04850000
*%AVRPLS: ;                                                             04900000
*       %IF AVR9999¬=','                /* IF THIS IS THE LAST BLOCK */ 04950000
*          %THEN %AVR9999=';'           /*  THEN CLOSE THE DCL STMT */; 05000000
*       %IF AVRLEVEL¬=''                /* IF THIS IS CONCATENATED   */ 05050000
*          %THEN %AVRDUM=AVRLEVEL||' AVRADR' /* GIVEN LEVEL @D3CADAP*/; 05100000
*       %ELSE %AVRDUM='DCL 1 AVRADR BASED ' /* LEVEL 1 DCL  @D3CADAP*/; 05150000
*/********************************************************************/ 05200000
*/*     DOS/VS VOLUME CHARACTERISTICS TABLE                          */ 05250000
*/********************************************************************/ 05300000
*     AVRDUM , /* VOLUME CHAR TABLE */                                  05350000
*        5 AVRPUB    PTR,          /* ADDR OF PUB                    */ 05400000
*        5 AVRVOLID  CHAR(6),      /* VOLUME IDENTIFIER              */ 05450000
*        5 AVRFLAG   CHAR(1),      /* MASK FOR INVALID OUTPUT FIELDS */ 05500000
*          6 AVREXTFL BIT(1),      /* EXTENTION IS AVAILABLE         */ 05550000
*          6 AVRSHR  BIT(1),       /* DEVICE IS SHARED       @D36SDAP*/ 05600000
*          6 AVRRSV  BIT(1),       /* DEVICE IS RESERVED     @D356DAP*/ 05650000
*          6 AVRCOPY BIT(1),       /* DEVICE IS A COPY       @D31ODAP*/ 05700000
*          6 AVRREMV BIT(1),       /* DEVICE HAS REMOVABLE MEDIA     */ 05750000
*          6 AVRCMSV BIT(1),       /* DEVICE IS A CMS DISK           */ 05800000
*          6 AVRNLNO BIT(1),       /* AVRLNO IS NOT VALID            */ 05850000
*          6 AVRNVOL BIT(1),       /* AVRVOLID + AVRVTOC NOT VALID   */ 05900000
*        5 AVRTYPE   CHAR(1),      /* FORMAT OF DEVICE CHARACTERISTIC*/ 05950000
*        5 AVRVTOC   CHAR(6),      /* VTOC DASD ADDRESS              */ 06000000
*          6 AVRVCC CHAR(2),     /* CKD CYLINDER NO. OF VTOC       */   06050001
*            7 AVRVCI CHAR(1),   /* FBA BLKS /VTOC CONTROL INTERVAL*/   06100001
*              8 AVRTLSE0 CHAR(1), /* LIBRARY SEQUENCE NUMBER BYTE 0 */ 06125001
*            7 AVRVNUM0 CHAR(1), /* FBA BLOCK NO. OF VTOC(BYTE 0)  */   06150001
*              8 AVRTLSE1 CHAR(1), /* LIBRARY SEQUENCE NUMBER BYTE 1 */ 06175001
*          6 AVRVHH CHAR(2),     /* CKD TRACK NO. OF VTOC          */   06200001
*            7 AVRVNUM1 CHAR(1), /* FBA BLOCK NO. OF VTOC(BYTE 1)  */   06250001
*              8 AVRTLSE2 CHAR(1), /* LIBRARY SEQUENCE NUMBER BYTE 2 */ 06275001
*            7 AVRVNUM2 CHAR(1), /* FBA BLOCK NO. OF VTOC(BYTE 2)  */   06300001
*              8 AVRTLSID CHAR(1), /* LIBRARY SUBSYSTEM-ID           */ 06325001
*          6 AVRVR  CHAR(1),     /* CKD RECORD NO. OF VTOC         */   06350001
*            7 AVRVNUM3 CHAR(1), /* FBA BLOCK NO. OF VTOC(BYTE 3)  */   06400001
*              8 AVRTINF0 CHAR(1), /* LIBRARY - RESERVED             */ 06425001
*          6 AVRCDCST CHAR(1),   /* RESERVED FOR INTERNAL  @D31ODAP*/   06450001
*            7 AVRFDCST CHAR(1), /* DUAL COPY STATUS INFO  @D31ODAP*/   06500001
*              8 AVRTINF1 CHAR(1), /* LIBRARY - RESERVED             */ 06537501
*                9 AVRNOWRT BIT(1), /* VM DISK WITH READ ONLY@D51EDAP*/ 06575001
*                9 *       BIT(7), /* RESERVED               @D51EDAP*/ 06612501
*        5 AVRLNO    CHAR(2)     /* LOGICAL UNIT NO.               */   06650001
*             AVR9999                                                   06700000
* %AVRLEN='LENGTH(AVRADR)';                                             06750000
* %AVRFBA='1'                /* OUTPUT FORMAT IS FOR FBA DEVICE     */; 06800000
* %AVRCKD='2'                /* OUTPUT FORMAT IS FOR CKD DEVICE     */; 06850000
* %AVRRPS='3'                /* OUTPUT FORMAT IS FOR CKD RPS DEVICE */; 06900000
* %AVRECKD='4'               /* OUTPUT FORMAT IS FOR ECKD   @D51EDAP*/; 06950000
* %AVRTAPE='32'              /* OUTPUT FORMAT IS FOR TAPE   @D21LDRP*/; 07000000
* %AVRGOOD='0'               /* ALL DATA RETURNED                   */; 07050000
* %AVRNOLNO='4'              /* UNABLE TO READ VOL1 LABEL               07100000
*                               CHECK AVRFLAG FOR MORE INFORMATION  */; 07150000
* %AVRNOVOL='8'              /* VOLUME NOT MOUNTED (INVALID INPUT)  */; 07200000
* %AVRNOASG='8'              /* GIVEN LOGICAL UNIT NOT ASSIGNED     */; 07250000
* %AVRNDASD='8'              /* GIVEN DEVICE NOT DASD               */; 07300000
* %AVRIGN='12'               /* GIVEN LOGICAL UNIT ASSIGNED IGNORE  */; 07350000
* %AVRNOTUP='16'             /* DEVICE NOT OPERATIONAL              */; 07400000
* %AVRBPL='20'               /* BAD INPUT PARAMETER LIST            */; 07450000
* %AVRNOTDF='24'             /* ASSGNED UNIT IS OF A DIFFERENT CLASS*/; 07500000
* %AVRNRDY='28'              /* DEVICE IS NOT READY                 */; 07550000
* %AVRILNG='12'              /* LENGTH OF GETVCE INPUT PARM LIST    */; 07600000
