         MACRO                                                          00050000
&NAME    BLDVRP &TYPE=,&FIX=,&KEYLEN=,&STRNO=,&BUFFERS=,&MF=I,         +00100000
               &SHRPOOL=,&RMODE31=,&MODE=                      @D22VDUS 00133301
.* VSE/VSAM BLDVRP 5686-066-05 VERSION 6 RELEASE 1             @D62DDMS 00200000
.*********************************************************************  00250000
.*                                                                      00300000
.* LAST REVISED 75/10/31                                                00350000
.* UPDATE       95/11/02                                       @D62DDMS 00375000
.*                                                                      00400000
.* MODULE NAME                                                          00450000
.*        BLDVRP                                                        00500000
.*                                                                      00550000
.* DESCRIPTIVE NAME                                                     00600000
.*        BUILD VARIABLE RESOURCE POOL                                  00650000
.*                                                                      00700000
.* COPYRIGHT                                                            00750000
.*        LICENSED MATERIALS - PROPERTY OF IBM                 @D62DDMS 00770000
.*        "RESTRICTED MATERIALS OF IBM'                        @D62DDMS 00790000
.*        5686-066                                             @D62DDMS 00810000
.*        (C) COPYRIGHT IBM CORP. 1995                         @D62DDMS 00830000
.*                                                                      00850000
.* STATUS                                                               00900000
.*        VERSION 6, RELEASE 1                                 @D62DDMS 00950000
.*                                                                      01000000
.* FUNCTION                                                             01050000
.*                                                                      01100000
.*        BUILDS CALLING SEQUENCE FOR THE VSAM MODULE 'IKQVBRP'         01150000
.*                                                                      01200000
.* NOTES                                                                01250000
.*        DEPENDENCIES                                                  01300000
.*              CAN BE USED ONLY FOR VSAM DATA SETS                     01350000
.*                                                                      01400000
.*        RESTRICTIONS                                                  01450000
.*              NONE                                                    01500000
.*                                                                      01550000
.*        REGISTER CONVENTIONS                                          01600000
.*              STANDARD LINKAGE CONVENTIONS                            01650000
.*              R1...ADDRESS OF PARAMETER LIST                          01700000
.*              R13..ADDRESS OF 72 BYTE SAVE AREA                       01750000
.*              R14..RETURN ADDRESS                                     01800000
.*              R15..ADDRESS OF VSAM MODULE TO BE CALLED                01850000
.*                                                                      01900000
.*        PATCH LABEL                                                   01950000
.*              NA                                                      02000000
.*                                                                      02050000
.*        SPECIAL TERMS AND ACRONYMS                                    02100000
.*              NONE                                                    02150000
.*                                                                      02200000
.* MODULE-TYPE                                                          02250000
.*        BAL MACRO                                                     02300000
.*                                                                      02350000
.*        PROCESSOR                                                     02400000
.*              /370 ASSEMBLER                                          02450000
.*                                                                      02500000
.*        MODULE-SIZE                                                   02550000
.*              NA                                                      02600000
.*                                                                      02650000
.*        ATTRIBUTES                                                    02700000
.*              NA                                                      02750000
.*                                                                      02800000
.* ENTRY-POINT                                                          02850000
.*        NA                                                            02900000
.*                                                                      02950000
.*        PURPOSE                                                       03000000
.*              SEE FUNCTION                                            03050000
.*                                                                      03100000
.*        LINKAGE                                                       03150000
.*              NA                                                      03200000
.*                                                                      03250000
.* INPUT                                                                03300000
.*        SEE PROTOTYPE STATEMENT                                       03350000
.*                                                                      03400000
.* OUTPUT                                                               03450000
.*        NA                                                            03500000
.*                                                                      03550000
.* EXIT-NORMAL                                                          03600000
.*      NA                                                              03650000
.*                                                                      03700000
.* EXIT-ERROR                                                           03750000
.*      MNOTES:                                                         03800000
.*      1)   4,'IKQ001 INVALID POSITIONAL PARAMETER,&B - IGNORED'       03850000
.*      2)  12,'IKQ002 &B KEYWORD REQUIRED-NOT SPECIFIED'               03900000
.*      3)  12,'IKQ003 INVALID VALUE,&C, SPECIFIED FOR &B KEYWORD'      03950000
.*      4)   4,'IKQ004 &B KEYWORD NOT VALID FOR EXECUTE FORM-IGNORED'   04000000
.*      5)  12,'IKQ008 INCOMPATIB SUBLIST ITEMS &C AND &D FOR &B KEYWD' 04050000
.*      6)   4,'IKQ018 &B KEYWORD NOT VALID FOR &C-IGNORED'             04100000
.*                                                                      04150000
.* EXTERNAL REFERENCES                                                  04200000
.*        ROUTINES                                                      04250000
.*              VSAM ROUTINE FOR 'BLDVRP'                               04300000
.*        DATA-AREAS                                                    04350000
.*              NONE                                                    04400000
.*        CONTROL-BLOCKS                                                04450000
.*              NONE                                                    04500000
.*                                                                      04550000
.* TABLES                                                               04600000
.*        NONE                                                          04650000
.*                                                                      04700000
.* MACROS                                                               04750000
.*        IKQERMAC                                                      04800000
.*        CDLOAD                                                        04850000
.*                                                                      04900000
.* CHANGE ACTIVITY                                                      04950000
.*                      MULTIPLE LSR SUPPORT                   @D22MDUS 05000000
.*                      31-BIT ADDRESSING                      @D22VDUS 05050000
.*                                                                      05100000
.********************************************************************** 05150000
         LCLA  &ORCODE                  CODES TO BE TURNED ON IN LIST   05200000
         LCLA  &ANDCODE                 CODES TO BE TURNED OFF IN LIST  05250000
         LCLA  &I,&J,&K,&L              WORK VARIABLES                  05300000
         LCLA  &POOL                    SHRPOOL VALUE          @D22MDUS 05350000
         LCLA  &KEYLE                   KEY LENGTH             @D22MDUS 05400000
         LCLA  &STRN                    STRING NUMBER          @D22MDUS 05450000
         LCLA  &FLGVAL                  DEC VALUE OF FLAG BYTE @D62DDMS 05475000
         LCLB  &MFE                     EXECUTE FORM INDICATOR          05500000
         LCLB  &ERR                     ERROR INDICATOR                 05550000
         LCLB  &FIOB                    FIX IO RELATED BLOCKS IND       05600000
         LCLB  &FBFR                    FIX BUFFERS INDICATOR           05650000
         LCLB  &BFR                     BUFFER SPECIFIED INDICATOR      05700000
         LCLB  &INXPOOL                 ON, IF INDEX RESOURCE  @D62DDMS 05725000
         LCLC  &BUFRSZ(50)              BUFFER SIZE TABLE               05750000
         LCLC  &BUFRCT(50)              BUFFER COUNT TABLE              05800000
         LCLC  &SORTV                   WORKVARIABLE                    05850000
         LCLC  &EREG                    EXECUTE FORM LIST ADDR REG      05900000
&ORCODE  SETA  128+64                   INDICATE DB/DC AND BLDVRP       05950000
&ANDCODE SETA  255-32                   RESET DLVRP                     06000000
&POOL    SETA  0                        DEFAULT TO POOL-ID     @D22MDUS 06050000
&INXPOOL SETB  0                        DEFAULT TO DATA POOL   @D62DDMS 06075000
         AIF   (N'&SYSLIST EQ 0).NOPOS  GO IF NO POSITIONAL OPERANDS    06100000
.POSLOOP ANOP                                                           06150000
&I       SETA  &I+1                     POINT TO NEXT POS OPERAND       06200000
         IKQERMAC 1,&SYSLIST(&I)        ISSUE WARNING MNOTE             06250000
         AIF   (&I LT N'&SYSLIST).POSLOOP  GO IF MORE POS OPERANDS      06300000
.NOPOS   ANOP                                                           06350000
         AIF   ('&MF' EQ 'I').MFB       GO IF STANDARD FORM             06400000
         AIF   ('&MF' EQ 'L').MFB       GO IF LIST FORM                 06450000
         AIF   (N'&MF LT 2).MFERR       GO IF NOT ENOUGH PARMS          06500000
         AIF   ('&MF(1)' NE 'E').MFERR  GO IF NOT EXECUTE FORM          06550000
&MFE     SETB  1                        INDICATE EXECUTE FORM           06600000
         AGO   .MFB                     GO AROUND ERROR                 06650000
.MFERR   ANOP                                                           06700000
         IKQERMAC 3,MF,&MF              ISSUE ERROR MNOTE               06750000
&ERR     SETB  1                        INDICATE ERROR                  06800000
.MFB     ANOP                                                           06850000
         AIF   ('&TYPE(1)' NE '').TOKY  GO IF TYPE IS SPECIFIED         06900000
         AIF   (&MFE).TYPEB             GO IF EXECUTE FORM              06950000
         AGO   .TLSR                    GO TAKE DEFAULT                 07000000
.TOKY    ANOP                                                           07050000
         AIF   ('&TYPE(1)' NE 'LSR').TGSRB  GO IF NOT LOCALLY SHARED    07100000
.TLSR    ANOP                                                           07250000
&ORCODE  SETA  &ORCODE+16               INDICATE LOCALLY SHARED         07300000
&ANDCODE SETA  &ANDCODE-8               RESET GLOBALLY SHARED           07350000
         AGO   .TYPEB                   GO AROUND TYPE ANALYSIS         07400000
.TGSRB   ANOP                                                           07700000
         IKQERMAC 3,TYPE,&TYPE(1)       ISSUE ERROR MNOTE               07733300
         MNOTE 'FIRST ITEM FOR THE TYPE KEYWORD MUST BE LSR OR BLANK'   07766600
&ERR     SETB  1                        INDICATE ERROR                  07800000
.TYPEB   ANOP                                                           07850000
.TYPELSR AIF   ('&TYPE(2)' EQ '' OR '&TYPE(2)' EQ 'DATA').CONTIN        07855000
         AIF   ('&TYPE(2)' EQ 'INDEX').INDEX                   @D62DDMS 07860000
         IKQERMAC  19,LSR,&TYPE(2)      INCOMPATIBLE PARAMETER @D62DDMS 07865000
&ERR     SETB  1                        INDICATE ERROR         @D62DDMS 07870000
         AGO   .CONTIN                  GO CHECK OTHER KEYWORD @D62DDMS 07875000
.INDEX   ANOP                                                  @D62DDMS 07880000
&INXPOOL SETB  1                        TYPE=INDEX WAS SPECIF. @D62DDMS 07885000
.CONTIN  ANOP                                                  @D62DDMS 07890000
.PART2   ANOP                                                  @D62DDMS 07895000
         AIF   ('&FIX' EQ '').FIXB      GO IF FIX NOT SPECIFIED         07900000
         IKQERMAC 18,FIX,DOS/VS         FIX NOT ALLOWED IN DOS,IGNORED  07950000
         AGO   .FIXB                                                    08000000
&ANDCODE SETA  &ANDCODE-6               RESET FIX IO BLOCKS AND BUFFERS 08050000
&I       SETA  0                        INIT FIX SUBLIST SUBSCRIPT      08100000
.FIXL    ANOP                                                           08150000
&I       SETA  &I+1                     POINT TO NEXT ENTRY IN SUBLIST  08200000
         AIF   (&I GT N'&FIX).FIXB      GO IF NO MORE ENTRIES           08250000
         AIF   ('&FIX(&I)' EQ '').FIXL  GO IF NULL ENTRY                08300000
         AIF   ('&FIX(&I)' NE 'IOB').FIOBB  GO IF NOT IO BLOCKS         08350000
         AIF   (&FIOB).FERR             GO IF IO BLOCKS ALREADY SPECD   08400000
&FIOB    SETB  1                        INDICATE FIX                    08450000
&ORCODE  SETA  &ORCODE+4                ..I/O BLOCKS SPECIFIED          08500000
         AGO   .FIXL                    GO CHECK NEXT ENTRY             08550000
.FIOBB   ANOP                                                           08600000
         AIF   ('&FIX(&I)' NE 'BFR').FBFRB  GO IF NOT BUFFERS           08650000
         AIF   (NOT &FBFR).FERRB        GO IF BUFFERS NOT ALREADY SPECD 08700000
.FERR    ANOP                                                           08750000
         IKQERMAC 8,FIX,&FIX(&I),&FIX(&I)  ISSUE ERROR MNOTE            08800000
&ERR     SETB  1                        INDICATE ERROR                  08850000
         AGO   .FIXL                    GO CHECK NEXT ENTRY             08900000
.FERRB   ANOP                                                           08950000
&FBFR    SETB  1                        INDICATE FIX                    09000000
&ORCODE  SETA  &ORCODE+2                ..BUFFERS SPECIFIED             09050000
         AGO   .FIXL                    GO CHECK NEXT ENTRY             09100000
.FBFRB   ANOP                                                           09150000
         IKQERMAC 3,FIX,&FIX(&I)        ISSUE ERROR MNOTE               09200000
&ERR     SETB  1                        INDICATE ERROR                  09250000
         AGO   .FIXL                    GO CHECK NEXT ENTRY             09300000
.FIXB    ANOP                                                           09350000
         AIF   ('&MF' NE 'I').STRNOB    GO IF NOT STANDARD FORM         09400000
         AIF   ('&STRNO' NE '').STRNOB  GO IF STRNO SPECIFIED           09450000
         IKQERMAC 2,STRNO               ISSUE ERROR MNOTE               09500000
&ERR     SETB  1                        INDICATE ERROR                  09550000
.STRNOB  ANOP                                                           09600000
         AIF   (&MFE).BUFRO             GO IF EXECUTE FORM              09650000
&J       SETA  0                        INIT BUFFER SIZE/CNT SUBSCRIPT  09700000
         AIF   ('&BUFFERS' NE '').BOKY  GO IF BUFFERS SPECIFIED         09750000
         IKQERMAC 2,BUFFERS             ISSUE ERROR MNOTE               09800000
&ERR     SETB  1                        INDICATE ERROR                  09850000
         AGO   .BUFRB1                  GO AROUND BUFFERS ANALYSIS      09900000
.BOKY    ANOP                                                           09950000
&I       SETA  0                        INIT BUFFERS SUBLIST SUBSCRIPT  10000000
.BUFRL10 ANOP                                                           10050000
&J       SETA  &J+1                     POINT TO NEXT BUFFER SIZE/COUNT 10100000
.BUFRL11 ANOP                                                           10150000
&I       SETA  &I+1                     POINT TO NEXT ENTRY IN SUBLIST  10200000
         AIF   (&I GT N'&BUFFERS).BUFRB0  GO IF NO MORE ENTRIES         10250000
         AIF   ('&BUFFERS(&I)' EQ '').BUFRL11  GO IF NULL ENTRY         10300000
&BFR     SETB  1                        INDICATE BUFFER SPECIFIED       10350000
         AIF   ('&BUFFERS(&I)'(1,1) EQ '(').BUFRER  GO IF 1ST CHAR IS ( 10400000
&K       SETA  1                        INIT CHARACTER POINTER          10450000
.BUFRSL  ANOP                                                           10500000
&K       SETA  &K+1                     POINT TO NEXT CHARACTER         10550000
         AIF   (&K GT K'&BUFFERS(&I)).BUFRER  GO IF NO MORE CHARACTERS  10600000
         AIF   ('&BUFFERS(&I)'(&K,1) NE '(').BUFRSL  GO IF NOT TO ( YET 10650000
&BUFRSZ(&J) SETC '&BUFFERS(&I)'(1,&K-1)  NUMBER IN FRONT OF ( IS SIZE   10700000
&L       SETA  &K+1                     SAVE POINTER TO CHAR AFTER (    10750000
         AIF   ('&BUFFERS(&I)'(&L,1) EQ ')').BUFRER  GO IF NO SIZE '()' 10800000
&K       SETA  &L                       POINT TO CHARACTER AFTER (      10850000
.BUFRCL  ANOP                                                           10900000
&K       SETA  &K+1                     POINT TO NEXT CHARACTER         10950000
         AIF   (&K GT K'&BUFFERS(&I)).BUFRER  GO IF NO MORE CHARACTERS  11000000
         AIF   ('&BUFFERS(&I)'(&K,1) NE ')').BUFRCL  GO IF NOT TO ) YET 11050000
&BUFRCT(&J) SETC '&BUFFERS(&I)'(&L,&K-&L)  NUMBER BETWEEN () IS COUNT   11100000
         AIF   ('&BUFRCT(&J)' LT '3').BUFRER  COUNT MUST BE AT LEAST 1  11150000
         AIF   ('&BUFRCT(&J)' GT '32767').BUFRER  ..AND LESS THAN 32K   11200000
&K       SETA  512                      START BUFFER SIZE AT 512        11250000
.BUFRL12 ANOP                                                           11300000
         AIF   ('&BUFRSZ(&J)' EQ '&K').BUFRL10  GO IF VALID BUFFER SIZE 11350000
         AIF   (&K GT 2048).BFRA4K      IF > 2K MUST BE MULTIPLE OF 4K  11400000
&K       SETA  &K*2                     ..OTHERWISE MUST BE POWER OF 2  11450000
         AGO   .BUFRL12                 GO TEST BUFFER SIZE             11500000
.BFRA4K  ANOP                                                           11550000
         AIF   (&K GE 32768).BUFRER     GO IF INVALID BUFFER SIZE       11600000
&K       SETA  &K+4096                  NEXT BUFFER SIZE VALUE          11650000
         AGO   .BUFRL12                 GO TEST BUFFER SIZE             11700000
.BUFRER  ANOP                                                           11750000
         IKQERMAC 3,BUFFERS,&BUFFERS(&I)  ISSUE ERROR MNOTE             11800000
&ERR     SETB  1                        INDICATE ERROR                  11850000
         AGO   .BUFRL11                 GO TO NEXT ENTRY                11900000
.BUFRB0  ANOP                                                           11950000
         AIF   (&BFR).BUFRB01           GO IF BUFFER SPECIFIED          12000000
         IKQERMAC 3,BUFFERS,&BUFFERS    ISSUE ERROR MNOTE               12050000
&ERR     SETB  1                        INDICATE ERROR                  12100000
         AGO   .BUFRB1                  GO AROUND BUFFERS ANALYSIS      12150000
.BUFRB01 ANOP                                                           12200000
&K       SETA  &J-1                     GET NB OF SIZE/COUNT PAIRS      12250000
         AIF   (&K LE 1).BUFRB1         MORE THAN 1 SIZE/COUNT PAIR     12300000
&I       SETA  1                                                        12350000
&L       SETA  2                                                        12400000
.SORT0   ANOP                           SORT BUFRSZ/BUFRCT TABLE        12450000
         AIF   ('&BUFRSZ(&I)' LE '&BUFRSZ(&L)').SORT1                   12500000
&SORTV   SETC  '&BUFRSZ(&I)'            SWOP TABLE ENTRIES              12550000
&BUFRSZ(&I) SETC '&BUFRSZ(&L)'                                          12600000
&BUFRSZ(&L) SETC '&SORTV'                                               12650000
&SORTV   SETC  '&BUFRCT(&I)'                                            12700000
&BUFRCT(&I) SETC '&BUFRCT(&L)'                                          12750000
&BUFRCT(&L) SETC '&SORTV'                                               12800000
.SORT1   ANOP                                                           12850000
         AIF   (&L GE &K).SORT2         GO IF SMALLEST SIZE FOUND       12900000
&L       SETA  &L+1                                                     12950000
         AGO   .SORT0                                                   13000000
.SORT2   ANOP                                                           13050000
&I       SETA  &I+1                                                     13100000
         AIF   (&I GE &K).BUFRB1        GO IF ALL ENTRIES SORTED        13150000
&L       SETA  &I+1                                                     13200000
         AGO   .SORT0                   LOOP                            13250000
.BUFRO   ANOP                                                           13300000
         AIF   ('&BUFFERS' EQ '').BUFRB1  GO IF BUFFERS NOT SPECIFIED   13350000
         IKQERMAC 4,BUFFERS             ISSUE WARNING MNOTE             13400000
.BUFRB1  ANOP                                                           13450000
         AIF   (&ERR).END               GO IF ANY ERRORS                13500000
         AIF   (&MFE).EXEC              GO IF EXECUTE FORM              13550000
         AIF   ('&MF' EQ 'L').LIST      GO IF LIST FORM                 13600000
         AIF   ('&NAME' EQ '').NAMEB1   GO IF NO NAME                   13650000
&NAME    DS    0H                                                       13700000
.NAMEB1  ANOP                                                           13750000
         CNOP  0,4                      ALIGN ON WORD BOUNDARY          13800000
&I       SETA  ((&J-1)*8)+16            CALC DISP TO LINKAGE            13850000
         BAL   1,*+&I                   PLACE LIST ADDRESS IN 1         13900000
         AGO   .GENACB                                                  13950000
.LIST    ANOP                                                           14000000
&NAME    DS    0F                       ALIGN ON WORD BOUNDARY          14050000
.GENACB  ANOP                                                           14100000
         DC    A(*+12)                  BUFFER LIST ADDRESS             14150000
         AIF   ('&KEYLEN' NE '').CHKKEYL  GO IF KEY LENGTH SPECIFIED    14200000
         DC    AL1(255)                 KEY LENGTH                      14250000
         AGO   .AKEYLEN                 GO AROUND KEY LENGTH            14300000
.CHKKEYL AIF   ('&KEYLEN' LT '256').GENKEYL GO IF KEY LENGTH NOT TO BIG 14350000
         IKQERMAC 3,KEYLEN,&KEYLEN      ISSUE ERROR MESSAGE             14400000
         AGO   .AKEYLEN                 GO AROUND KEY LENGTH            14450000
.GENKEYL ANOP                                                           14500000
         DC    AL1(&KEYLEN)             KEY LENGTH                      14550000
.AKEYLEN ANOP                                                           14600000
         AIF   ('&STRNO' NE '').CHKSTRN  GO IF STRING NUMBER SPECIFIED  14650000
         DC    AL1(0)                   STRING NUMBER                   14700000
         AGO   .ASTRNO                  GO AROUND STRING NUMBER         14750000
.CHKSTRN ANOP                                                           14800000
         AIF   ('&STRNO' LT '256').CHKSTR1 GO IF STRNO NOT TO BIG       14850000
         IKQERMAC 3,STRNO,&STRNO        ISSUE ERROR MESSAGE             14900000
         AGO   .ASTRNO                  GO AROUNG STRING NUMBER         14950000
.CHKSTR1 AIF   ('&STRNO' GE '1').GENSTRN   GO IF STRNO 1 - 255          15000000
         IKQERMAC 3,STRNO,&STRNO        ISSUE ERROR MESSAGE             15050000
         AGO   .ASTRNO                                                  15100000
.GENSTRN ANOP                                                           15150000
         DC    AL1(&STRNO)              STRING NUMBER                   15200000
.ASTRNO  ANOP                                                           15250000
         DC    AL1(&ORCODE)             VRP CODES                       15300000
         AIF   ('&SHRPOOL' EQ '').GENSHRP  GO IF SHRPOOL NOT SPECIFIED  15350000
&POOL    SETA  &SHRPOOL(1)              GET SHRPOOL NUMBER     @D22MDUS 15400000
         AIF   ('&POOL' LE '15').CHKPOOL  GO IF NOT TOO BIG    @D22MDUS 15450000
         IKQERMAC 3,SHRPOOL,&POOL       ISSUE ERROR MSG        @D22MDUS 15500000
         AGO   .GENSHRP                 GO AROUND              @D22MDUS 15550000
.CHKPOOL AIF   ('&POOL' GE '0').GENSHRP  GO IF NOT TOO SMALL   @D22MDUS 15600000
         IKQERMAC 3,SHRPOOL,&POOL       ISSUE ERROR MSG        @D22MDUS 15650000
.GENSHRP ANOP                                                  @D22MDUS 15700000
         DC    AL1(&POOL.)              SHRPOOL NUMBER         @D22MDUS 15750000
.RM31L   ANOP                           RMODE31                @D22VDUS 15800000
         AIF   (('&RMODE31' EQ 'ALL') OR                               +15850000
               ('&RMODE31' EQ 'BUFF')).GRM31A                           15900000
         AIF   (('&RMODE31' EQ 'NONE') OR                              +15950000
               ('&RMODE31' EQ 'CB') OR                                 +16000000
               ('&RMODE31' EQ '')).GRM31B                      @D22VDUS 16050000
         IKQERMAC 13,RMODE31,&RMODE31   ISSUE WARNING MNOTE    @D22VDUS 16100000
.GRM31B  ANOP                                                  @D22VDUS 16150000
&FLGVAL  SETA  0                        SET OFF 31 BIT         @D62DDMS 16200000
         AGO   .RM31END                 GO AROUND              @D22VDUS 16250000
.GRM31A  ANOP                                                  @D22VDUS 16300000
&FLGVAL  SETA  128                      SET 31 BIT             @D62DDMS 16350000
.RM31END ANOP                                                  @D22VDUS 16400000
         AIF   (&INXPOOL).SETINX                               @D62DDMS 16407100
         AGO   .WRTFLG                                         @D62DDMS 16414200
.SETINX  ANOP                                                  @D62DDMS 16421300
&FLGVAL  SETA  &FLGVAL+64               SET INDEX              @D62DDMS 16428400
.WRTFLG  ANOP                                                  @D62DDMS 16435500
         DC    AL1(&FLGVAL)             SET OFF 31 BIT         @D62DDMS 16442600
         DC    AL3(0)                   RESERVED                        16450000
&I       SETA  0                        INIT BUFFER SIZE/COUNT POINTER  16500000
&K       SETA  &J-1                     POINT TO LAST BUFFER SIZE/COUNT 16550000
.BUFRL2  ANOP                                                           16600000
&I       SETA  &I+1                     POINT TO NEXT BUFFER SIZE/COUNT 16650000
         AIF   (&I GE &J).BUFRB2        GO IF NO MORE ENTRIES           16700000
         DC    A(&BUFRSZ(&I))           BUFFER SIZE                     16750000
         AIF   (&I EQ &K).GENEND        GO IF LAST BUFFER SIZE/COUNT    16800000
         DC    AL2(0)                   RESERVED                        16850000
         AGO   .AREND                   GO AROUND GEN OF END OF LIST    16900000
.GENEND  ANOP                                                           16950000
         DC    X'80'                    INDICATE LAST LIST ENTRY        17000000
         DC    AL1(0)                   RESERVED                        17050000
.AREND   ANOP                                                           17100000
         DC    AL2(&BUFRCT(&I))         BUFFER COUNT                    17150000
         AGO   .BUFRL2                  GO GEN NEXT ENTRY               17200000
.BUFRB2  ANOP                                                           17250000
         AIF   ('&MF' NE 'L').ISUSVC    GO IF NOT LIST FORM             17300000
         MEXIT                                                          17350000
.EXEC    ANOP                                                           17400000
         AIF   ('&NAME' EQ '').NAMEB2   GO IF NO NAME                   17450000
&NAME    DS    0H                                                       17500000
.NAMEB2  ANOP                                                           17550000
         AIF   ('&MF(2)'(1,1) EQ '(').EREG  GO IF LIST ADDRESS IN REG   17600000
         LA    1,&MF(2)                 LOAD LIST ADDRESS               17650000
         AGO   .AEREG                   GO AROUND REG CODE              17700000