         MACRO                                                          00050000
&NAME    CALL  &ENTRY,&OPRNDS,&VLPARA,&ID=,&MF=I                        00100000
.********************************************************************** 00150000
.*                                                                    * 00200000
.* COPYRIGHT = 5686-032                                               * 00250061
.*             THIS MODULE IS "RESTRICTED MATERIALS OF IBM"           * 00300000
.*             (C) COPYRIGHT IBM CORP. 1988, 1994                     * 00350061
.*             LICENSED MATERIALS - PROPERTY OF IBM                   * 00400000
.*                                                                    * 00450000
.* STATUS =  HBB3310                                                  * 00500000
.*                                                                    * 00550000
.* CHANGE ACTIVITY =                                                  * 00600000
.*   $L1 =    AR    HBB3310 851105 PDXB: AR SUPPORT                   * 00650000
.*   OY22639 - FIX VALIDITY CHECKING FOR MF=(E,....) PARAMETER        * 00700000
.*   @D61CDVB-      931223  PORTED TO VSE/ESA 2.1.0            @D61CDVB 00725061
.*                                                                    * 00750000
.********************************************************************** 00800000
         GBLB  &IHBSWA,&IHBSWB                                          00850000
         GBLC  &IHBNO                                                   00900000
         LCLC  &GNAME                                                   00950000
&IHBNO   SETC  '309'                                                    01000000
&GNAME   SETC  'IHB'.'&SYSNDX'                                          01050000
&IHBSWA  SETB  1                         ('&VLPARA' EQ 'VL')   @D61CDVB 01100061
&IHBSWB  SETB  ('&ENTRY' EQ '(15)')                                     01150000
         AIF   ('&VLPARA' NE '' AND '&VLPARA' NE 'VL').ERROR4  @ZA33014 01200000
         AIF   ('&MF' EQ 'L' AND '&ENTRY' NE '').ERROR1                 01250000
         AIF   ('&MF' EQ 'L' AND '&ID' NE '').ERROR2                    01300000
         AIF   ('&MF' NE 'L' AND '&ENTRY' EQ '').ERROR3                 01350000
         AIF   ('&MF' EQ 'L' ).CONTC                                    01400000
         AIF   (&IHBSWB).CONTCC                                         01450000
         CNOP  0,4                                                      01500000
&NAME    B     *+8                               BRANCH AROUND VCON     01550000
&GNAME.B DC    V(&ENTRY)                         ENTRY POINT ADDRESS    01600000
.CONTC   AIF   ('&OPRNDS' EQ '' AND                                    X01650000
               ('&MF' EQ 'I' OR '&MF' EQ 'L')).CONTB           @YA22639 01700000
.CONTA   IHBOPLTX &ENTRY,&OPRNDS,&NAME,MF=&MF                      @L1C 01750000
.CONTB   AIF   ('&MF' EQ 'L').EXIT                                      01800000
         AIF   (&IHBSWB).CONTD                                          01850000
         L     15,&GNAME.B                       LOAD 15 WITH ENTRY ADR 01900000
.CONTD   BALR  14,15                             BRANCH TO ENTRY POINT  01950000
         AIF   ('&ID' EQ '').EXIT                                       02000000
         DC    X'4700'                           NOP INSTRUCTION WITH   02050000
         DC    AL2(&ID)                          ID IN LAST TWO BYTES   02100000
.EXIT    MEXIT                                                          02150000
.CONTCC  ANOP                                                           02200000
&NAME    DS    0H                                                       02250000
         AGO   .CONTC                                                   02300000
.ERROR1  IHBERMAC 73,&IHBNO,&ENTRY          ENTRY  W/ MF=L              02350000
         MEXIT                                                          02400000
.ERROR2  IHBERMAC 74,&IHBNO,&ID             ID W/ MF=L                  02450000
         MEXIT                                                          02500000
.ERROR3  IHBERMAC 26,&IHBNO                 ENTRY SYMBOL MISSING        02550000
         MEXIT                                                          02600000
.ERROR4  IHBERMAC 1014,THIRD                INVALID THIRD PARM @ZA33014 02650000
         MEND                                                           02700000
