         MACRO                                                          00050000
&NAME    CANCEL &ALL                                                3-3 00100000
.*       IBM DISK OPERATING SYSTEM                                      00150000
*        SUPVR COMMN MACROS - CANCEL - 5686-007-06 - C44       @D31EDJO 00200000
         AGO   .ZZZ                                            @D31UDMZ 00250000
*        THIS MACRO IS "RESTRICTED MATERIALS OF IBM"           @D31UDMZ 00300000
*        5686-007 (C) COPYRIGHT IBM CORP. 1977,1989            @D31UDMZ 00350000
*        ALL RIGHTS RESERVED                                   @D31UDMZ 00400000
*        LICENSED MATERIALS-PROPERTY OF IBM                    @D31UDMZ 00450000
*        SEE COPYRIGHT INSTRUCTIONS, G120-2083                 @D31UDMZ 00500000
.ZZZ     ANOP                                                  @D31UDMZ 00550000
         AIF   ('&NAME' EQ '').NOMSG                                3-3 00600000
&NAME    DS    0H                                                   3-6 00650000
.NOMSG   ANOP                                                       3-3 00700000
         AIF   ('&ALL' EQ '').BL                                    3-3 00750000
         AIF   ('&ALL' EQ 'ALL').PR                                 3-3 00800000
         AIF   ('&ALL' NE 'CALLER').MNOTE                      @D14BDFR 00850000
         SVC   50                                              @D14BDFR 00900000
         MEXIT                                                 @D14BDFR 00950000
.MNOTE   MNOTE 3,'INVALID OPERAND -CANCEL ASSUMED'             @D14BDFR 01000000
.BL      ANOP                                                       3-3 01050000
         SR    0,0                                                  3-3 01100000
         AGO   .SVC                                                 3-3 01150000
.PR      ANOP                                                       3-3 01200000
         LA    0,1                                                  3-3 01250000
.SVC     SVC   6                                                    3-3 01300000
         MEND                                                           01350000
