         MACRO                                                          00050000
&NAME    CHAP                                                           00100000
.*       IBM DISK OPERATING SYSTEM                                      00150000
*        SUPERVISOR  -  CHAP  -  5686-007-06-C44                        00200000
         AGO   .ZZZ                                            @D31UDMZ 00250000
*        THIS MACRO IS "RESTRICTED MATERIALS OF IBM"           @D31UDMZ 00300000
*        5686-007 (C) COPYRIGHT IBM CORP. 1977, 1989           @D31UDMZ 00350000
*        ALL RIGHTS RESERVED                                   @D31UDMZ 00400000
*        LICENSED MATERIALS-PROPERTY OF IBM                    @D31UDMZ 00450000
*        SEE COPYRIGHT INSTRUCTIONS, G120-2083                 @D31UDMZ 00500000
.ZZZ     ANOP                                                  @D31UDMZ 00550000
&NAME    DS    0H                                                       00600000
         SVC   78                 CHAP SVC                              00650000
         MEND                                                           00700000
