         MACRO                                                          00050000
&NAME    CLOSEHCF                                                       00100000
         LCLA  &AL1                                                     00150000
.*                                                                      00200000
*        SUPERVISOR - CLOSEHCF - 5686-066-06                   @D61CDUG 00212561
         AGO   .NOCOPY                                         @D61CDUG 00225061
.*                                                                      00237561
*********************************************************************** 00250000
*                                                                       00300000
*        LICENSED MATERIALS - PROPERTY OF IBM                  @D61CDUG 00350061
*        "RESTRICTED MATERIALS OF IBM"                         @D61CDUG 00400061
*        5686-066 (C) COPYRIGHT IBM CORP. 1980, 1994           @D61CDUG 00450061
*                                                                       00950000
*********************************************************************** 01000000
.NOCOPY  ANOP                                                  @D61CDUG 01033361
.*                                                             @D61CDUG 01066661
.* /* START OF SPECIFICATIONS ***************************************** 01100000
.*                                                                      01150000
.*01* MODULE NAME = CLOSEHCF                                            01200000
.*                                                                      01250000
.*01* MODULE TYPE = HARD COPY FILE COMMUNICATION MACRO                  01300000
.*                                                                      01350000
.*01* DESCRIPTIVE NAME = CLOSE FOR HARD COPY FILE                       01400000
.*                                                                      01450000
.*01* NOTES = NEW MODULE FOR DOS /VSE AF 1.3                            01500000
.*              HARD COPY FILE SUPPORT                                  01550000
.*                                                                      01600000
.*01* CHANGE ACTIVITIES = AS FOLLOWS                                    01650000
.*             BLOCKED HARD COPY FILE                          @D37ADRP 01700000
.*A000000-999999                                               @D37ADRP 01750000
.*                                                                      01800000
.* /* END OF SPECIFICATION ******************************************** 01850000
.*                                                                      01900000
.*   R2=52 INDICATION FOR CLOSEHCF SERVICE                              01950000
.*      R0=0 CLOSEHCF FOR READ-HCFCB                                    02000000
.*      R0=4 CLOSEHCF FOR WRITE-HCFCB                                   02050000
.*                                                                      02100000
         AIF   (N'&SYSLIST GT 1).ERR                                    02150000
&NAME    DS    0H                                                       02200000
         AIF   (N'&SYSLIST EQ 1).CLOSERD                                02250000
&AL1     SETA  8                  OFFSET FOR WRITE SERVICES             02300000
         LA    0,4                INDICATE CLOSEHCF FOR WRITE           02350000
         AGO   .GENBAL                                                  02400000
.CLOSERD AIF   ('&SYSLIST(1)'(1,1) NE '(').ERR                          02450000
         AIF   ('&SYSLIST(1)'(2,2) EQ '1)').IND1                        02500000
         LR    1,&SYSLIST(1,1)    GET ADDR OF HCFCB                     02550000
.IND1    ANOP                                                           02600000
         SR    0,0                INDICATE CLOSEHCF FOR READ            02650000
.GENBAL  ANOP                                                           02700000
         ASYSCOM 2                                                      02750000
         ICM   2,7,X'35'(2)       GET 24 BIT ADDR OF CRTTAB    @D61CDUG 02800061
         L     15,X'24'(2)        GET ENTRY POINT ADDR                  02850000
         LA    2,52               INDICATE CLOSEHCF                     02900000
         BAL   14,&AL1.(15)       INVOKE CLOSEHCF SERVICE               02950061
         MEXIT                                                          03000000
.ERR     MNOTE 5,'INCORRECT POS. OPERANDS SPECIFIED IN CLOSEHCF MACRO I*03050000
               NSTRUCTION, GENERATION TERMINATED'                       03100000
         MEND                                                           03150000
