         MACRO                                                 @D34NE58 00050000
&NAME    CPCLOSE &ARGL                                         @D34NE58 00100000
.*                                                                      00150000
*********************************************************************** 00200000
*                                                                       00250000
.*       IBM VSE / ADVANCED FUNCTIONS                          @D31UDGN 00300000
*        SUPERVISOR - CPCLOSE - 5686-007-06-C440               @D31UDGN 00350000
.*                                                                      00400000
         AGO   .CPRIGHT                                                 00450000
.*                                                                      00500000
*        THIS MACRO IS "RESTRICTED MATERIALS OF IBM"           @D31UDGN 00550000
*        5686-007 (C) COPYRIGHT IBM CORP. 1979, 1989           @D31UDGN 00600000
*        ALL RIGHTS RESERVED                                   @D31UDGN 00650000
*        LICENSED MATERIALS - PROGRAM PROPERTY OF IBM          @D31UDGN 00700000
.*       SEE COPYRIGHT INSTRUCTIONS, G120-2083                 @D31UDGN 00750000
.*                                                                      00800000
.CPRIGHT ANOP                                                           00850000
*                                                                       00900000
*********************************************************************** 00950000
.*                                                                      01000000
.* /* START OF SPECIFICATIONS *********************************@D34RDUL 01050000
.*                                                                      01100000
.* THIS MACRO IS TO BE USED FOR VM LINKAGE ENHANCEMENTS ONLY.  @D34NE58 01150000
.* IT WILL INTERFACE WITH VM BY ISSUING SVC 56 WHICH IN TURN   @D34NE58 01200000
.*    ISSUES A DIAGNOSE TO CLOSE FILES AT END OF JOB.          @D34NE58 01250000
.*                                                                      01300000
.* INPUT IS PARAMTER LIST CONTAINING                           @D34NE58 01350000
.*     HEX ADDRESS OF DEVICE TO BE CLOSED IN LOW ORDER HALF    @D34NE58 01400000
.*              OF FIRST WORD                                  @D34NE58 01450000
.*     EBCDIC ADDRESS OF DEVICE TO BE CLOSED IN SECOND WORD    @D34NE58 01500000
.*     JOB NAME IN THIRD AND FOURTH WORDS                      @D34NE58 01550000
.*                                                                      01600000
.* PARAMETER LIST ADDRESS IS PASSED IN REGISTER 1.             @D34NE58 01650000
.*    IT IS ASSUMED TO BE IN THIS REGISTER IF NO REGISTER OR   @D34NE58 01700000
.*    ADDRESS IS SPECIFIED IN MACRO INVOCATION.                @D34NE58 01750000
.*                                                             @D34RDUL 01800000
         AIF   ('&ARGL' EQ '').L3                              @D34NE58 01850000
         AIF   ('&ARGL'(1,1) EQ '(').L1                        @D34NE58 01900000
&NAME    L     1,=A(&ARGL)                                     @D34NE58 01950000
         AGO   .L2                                             @D34NE58 02000000
.L1      ANOP                                                  @D34NE58 02050000
         AIF   ('&ARGL'(2,2) EQ '1)').L3                       @D34NE58 02100000
&NAME    LR    1,&ARGL(1)                                      @D34NE58 02150000
.L2      ANOP                                                  @D34NE58 02200000
         SVC   56                                              @D34NE58 02250000
         MEXIT                                                 @D34NE58 02300000
.L3      ANOP                                                  @D34NE58 02350000
&NAME    SVC   56                                              @D34NE58 02400000
         MEND                                                  @D34NE58 02450000
