         MACRO                                                          00050000
&NAME    CRSECT &END=                                          @D35CDFG 00100000
.*************************************************************          00150061
.*       LICENSED MATERIALS-PROPERTY OF IBM                  *          00200061
.*       THIS MACRO IS "RESTRICTED MATERIALS OF IBM"         *          00250061
.*       5686-066 (C) COPYRIGHT IBM CORP. 1977, 1995         *          00300061
.*       SEE COPYRIGHT INSTRUCTIONS                          *          00350061
.*************************************************************          00400061
.* /* START OF SPECIFICATIONS ********************************          00450061
.*                                                                      00900000
.*01* MODULE-TYPE = SUPERVISOR GENERATION MACRO                         00950000
.*                                                                      01000000
.*01* DESCRIPTIVE NAME = REFERENCE PIECE OF CODE TO AVOID PF LATERON    01050061
.*                                                                      01100000
.**** END OF SPECIFICATIONS ******************************************/ 01250000
&NAME    CLI   &END,0             ENTER CRITICAL CODE SECTION  @D14NDFG 01500000
         MEND                                                  @D35CDFG 01700000
