         MACRO                                                          00050000
&NAME    CVTOC &DLIST=,&MF=                                             00100000
.*A000000-999999                                               @D35XE32 00150000
.*                                                                      00200000
.** START OF SPECIFICATIONS ******************************************* 00250000
.*                                                                    * 00300000
.*  MODULE-NAME = CVTOC                                               * 00350000
.*                                                                    * 00400000
.*  DESCRIPTIVE-NAME = CLOSE VTOC                                     * 00450000
.*                                                                    * 00500000
.*  COPYRIGHT = THIS MACRO IS "RESTRICED MATERIALS OF IBM"     @U31TUJS 00550000
.*    5686-007 (C) COPYRIGHT IBM CORP. 1977,1992               @D52VDAK 00600052
.*    ALL RIGHTS RESERVED                                      @U31TUJS 00650000
.*    LICENSED MATERIALS - PROPERTY OF IBM                     @U31TUJS 00700000
.*    SEE COPYRIGHT INSTRUCTIONS, G120-2083                    @U31TUJS 00750000
.*                                                                    * 00800000
.*  STATUS = DOS/VS RELEASE 35                                        * 00850000
.*                                                                    * 00900000
.*  FUNCTION = THIS MACRO IS USED TO GENERATE THE INTERFACE TO THE    * 00950000
.*             COMMON VTOC HANDLER (CVH) FOR CLOSING A VTOC.          * 01000000
.*                                                                    * 01050000
.*  MODULE-TYPE = MACRO                                               * 01100000
.*                                                                    * 01150000
.*    PROCESSOR = ASSEMBLER                                           * 01200000
.*                                                                    * 01250000
.*  INPUT =                                                           * 01300000
.*                                                                    * 01350000
.*       DLIST OPERAND SPECIFIES THE ADDRESS OF A VOLUME DESCRIPTOR   * 01400000
.*       LIST WHICH WAS BUILT WHEN THE VTOC WAS OPENED.               * 01450000
.*                                                                    * 01500000
.*       MF OPERAND SPECIFIES WHETHER THE MACRO IS TO GENERATE LIST   * 01550000
.*       OR EXECUTE FORMS OF THE INTERFACE.  IF E IS SPECIFIED, THEN  * 01600000
.*       THE ADDRESS OF A PARAMETER LIST MUST ALSO BE SPECIFIED.  IF  * 01650000
.*       THIS OPERAND IS NOT SPECIFIED, THE STANDARD FORM IS          * 01700000
.*       GENERATED.                                                   * 01750000
.*                                                                    * 01800000
.*  OUTPUT =                                                          * 01850000
.*                                                                    * 01900000
.*       FOR STANDARD AND LIST FORMS, THE CVH CLOSE PARAMETER LIST IS * 01950000
.*       GENERATED.  FOR STANDARD AND EXECUTE FORMS, CODE TO INVOKE   * 02000000
.*       THE CVH IS GENERATED.  FOR THE EXECUTE FORM, CODE MAY ALSO   * 02050000
.*       BE GENERATED TO MODIFY THE EXISTING PARAMETER LIST.          * 02100000
.*                                                                    * 02150000
.*  CHANGE-ACTIVITY = NONE                                            * 02200000
.*                                                                    * 02250000
.** END OF SPECIFICATIONS ********************************************* 02300000
.*                                                                      02350000
         ACTR  1000                                                     02400000
.*                                                                      02450000
.********************************************************************** 02500000
.*                                                                    * 02550000
.*****          CHECK FOR MISSING OR INVALID PARAMETERS           ***** 02600000
.*                                                                    * 02650000
.********************************************************************** 02700000
.*                                                                      02750000
         AIF   (('&DLIST' NE '') OR ('&MF' NE '')).C1                   02800000
         MNOTE 8,'DLIST OPERAND MISSING'                                02850000
         MEXIT                                                          02900000
.C1      ANOP                                                           02950000
         AIF   ('&MF' EQ '').SLE1      MF NOT SPECIFIED, GO ON          03000000
         AIF   ('&MF' EQ 'L').SLE1     LIST FORM, GO ON                 03050000
         AIF   ('&MF(1)' EQ 'E').SLE1  EXECUTE FORM, GO ON              03100000
         MNOTE 8,'MF OPERAND INVALID'                                   03150000
         MEXIT                                                          03200000
.*                                                                      03250000
.********************************************************************** 03300000
.*                                                                    * 03350000
.*****        GENERATE STATEMENT COMMON TO ALL THREE FORMS        ***** 03400000
.*                                                                    * 03450000
.********************************************************************** 03500000
.*                                                                      03550000
.SLE1    ANOP                                                           03600000
         CNOP  0,4                                                      03650000
         AIF   ('&NAME' EQ '').SSLLEE1                                  03700000
&NAME    DS    0H                                                       03750000
.SSLLEE1 ANOP                                                           03800000
.*                                                                      03850000
         AIF   ('&MF' EQ '').S1        STANDARD FORM, GO TO DO BRANCH   03900000
         AIF   ('&MF' EQ 'L').SL1      LIST FORM, GO TO DO LIST         03950000
         AGO   .E1                     ELSE, EXECUTE FORM               04000000
.*                                                                      04050000
.********************************************************************** 04100000
.*                                                                    * 04150000
.*****   GENERATE BRANCH AROUND PARAMETER LIST FOR STANDARD FORM  ***** 04200000
.*                                                                    * 04250000
.********************************************************************** 04300000
.*                                                                      04350000
.S1      ANOP                                                           04400000
         B     *+12                    BRANCH AROUND PARAMETER LIST     04450000
.*                                                                      04500000
.********************************************************************** 04550000
.*                                                                    * 04600000
.*****    GENERATE PARAMETER LIST FOR STANDARD AND LIST FORMS     ***** 04650000
.*                                                                    * 04700000
.********************************************************************** 04750000
.*                                                                      04800000
.SL1     ANOP                                                           04850000
         DC    X'40000000'             INDICATE CLOSE                   04900000
         AIF   ('&DLIST' EQ '').SL2    DLIST NOT GIVEN OR IN A REGISTER 04950000
         AIF   ('&DLIST'(1,1) EQ '(').SL2 THEN NO ADDRESS TO GENERATE   05000000
         DC    AL4(&DLIST)             DLIST ADDRESS                    05050000
         AGO   .SL3                    GO ON                            05100000
.SL2     ANOP                                                           05150000
         DC    AL4(0)                  DLIST ADDRESS                    05200000
.SL3     ANOP                                                           05250000
         AIF   ('&MF' EQ '').S2        STANDARD FORM, GO ON             05300000
         MEXIT                                                          05350000
.*                                                                      05400000
.********************************************************************** 05450000
.*                                                                    * 05500000
.*****        GENERATE INSTRUCTIONS FOR THE STANDARD FORM         ***** 05550000
.*                                                                    * 05600000
.********************************************************************** 05650000
.*                                                                      05700000
.S2      ANOP                                                           05750000
         AIF   ('&DLIST'(1,1) NE '(').S3 NOT IN A REG, NO STORE         05800000
         ST    &DLIST(1),*-4           STORE DLIST ADDRESS IN LIST      05850000
         LA    1,*-12                  GET LIST ADDRESS IN REGISTER 1   05900000
         AGO   .SE1                    GO TO GENERATE CVH CALL          05950000
.S3      ANOP                                                           06000000
         LA    1,*-8                   GET LIST ADDRESS IN REGISTER 1   06050000
         AGO   .SE1                    GO TO GENERATE CVH CALL          06100000
.*                                                                      06150000
.********************************************************************** 06200000
.*                                                                    * 06250000
.*****         GENERATE INSTRUCTIONS FOR THE EXECUTE FORM         ***** 06300000
.*                                                                    * 06350000
.********************************************************************** 06400000
.*                                                                      06450000
.E1      ANOP                                                           06500000
         XR    0,0                     CLEAR FLAG BYTES IN LIST         06550000
         AIF   ('&MF(2)'(1,1) EQ '(').E10 IF LIST ADDR IN A REG, GO TO  06600000
.*                                     GENERATE DIFFERENT INSTRUCTIONS  06650000
         ST    0,&MF(2)                                                 06700000
         OI    &MF(2),X'40'            INDICATE CLOSE                   06750000
         AIF   ('&DLIST' EQ '').E3     DLIST NOT GIVEN                  06800000
         AIF   ('&DLIST'(1,1) EQ '(').E2 DLIST IN A REGISTER            06850000
         LA    0,&DLIST                GET DLIST ADDRESS                06900000
         ST    0,&MF(2)+4              STORE DLIST ADDRESS IN LIST      06950000
         AGO   .E3                                                      07000000
.E2      ANOP                                                           07050000
         ST    &DLIST(1),&MF(2)+4      STORE DLIST ADDRESS IN LIST      07100000
.E3      ANOP                                                           07150000
         LA    1,&MF(2)                GET LIST ADDRESS IN REGISTER 1   07200000
         AGO   .SE1                    GO TO GENERATE CVH CALL          07250000
.E10     ANOP                                                           07300000
         ST    0,0&MF(2)                                                07350000
         OI    0&MF(2),X'40'           INDICATE CLOSE                   07400000
         AIF   ('&DLIST' EQ '').E12    DLIST NOT GIVEN                  07450000
         AIF   ('&DLIST'(1,1) EQ '(').E11 DLIST IN A REGISTER           07500000
         LA    0,&DLIST                GET DLIST ADDRESS                07550000
         ST    0,4&MF(2)               STORE DLIST ADDRESS IN LIST      07600000
         AGO   .E12                                                     07650000
.E11     ANOP                                                           07700000
         ST    &DLIST(1),4&MF(2)       STORE DLIST ADDRESS IN LIST      07750000
.E12     ANOP                                                           07800000
         AIF   ('&MF(2)' EQ '(1)').SE1 IF LIST ADDRESS ALREADY IN 1,    07850000
.*                                     GO TO GENERATE CVH CALL          07900000
         LR    1,&MF(2)                GET LIST ADDRESS IN REGISTER 1   07950000
.*                                                                      08000000
.********************************************************************** 08050000
.*                                                                    * 08100000
.*****    GENERATE INSTRUCTIONS FOR STANDARD AND EXECUTE FORMS    ***** 08150000
.*                                                                    * 08200000
.********************************************************************** 08250000
.*                                                                      08300000
.SE1     ANOP                                                           08350000
         L     15,4(1)                 GET DLIST ADDRESS                08400000
         L     15,32(15)               GET CVH ADDRESS FROM DLIST       08450000
         XR    14,14               SET LENGTH CODE TO 1        @D52VDAK 08457152
         BALR  14,0           GET NEXT INSTRUCTION ADDRESS AND @D52VDAK 08464252
*                             SET HIGH ORDER BIT IF AMODE 31   @D52VDAK 08471352
         LTR   14,14          RUNNING IN 24 BIT MODE ?         @D52VDAK 08478452
         BP    8(,14)         YES,OK                           @D52VDAK 08485552
         SVC   130            EXECUTION MODE VIOLATION         @D52VDAK 08492652
         BALR  14,15                   CALL CVH                         08500000
         MEND                                                           08550000
