         MACRO                                                          00050000
&NAME    DAMODV  &AFTER=,&RECFORM=,&IDLOC=,&SEPASMB=,&RELTRK=,&RDONLY=,X00100000
               &HOLD=,&ERREXT=,&FEOVD=,&RPS=                   @DL30SMG 00150000
         GBLB  &IJIDA,&RPSGEN                                  @DA15955 00200000
         LCLB  &B(12)                                          @DL30SMG 00250000
         LCLC  &N1,&N2,&N3,&N4,&N5,&CSNAME                              00300000
         MNOTE 0,'OBSOLETE MACRO DAMODV'                       @D14ZDBF 00350000
         MNOTE   'PLEASE DELETE MACRO CALL IN SOURCE'          @D14ZDBF 00400000
         MEND                                                  @D14ZDBF 00450000
