         MACRO                                                          00050000
&NAME    DAMOD &AFTER=,&RECFORM=,&IDLOC=,&SEPASMB=,&RELTRK=,&RDONLY=,&HX00100000
               OLD=,&ERREXT=,&FEOVD=,&RPS=                     @DL30SMG 00150000
         GBLB  &IJIDA,&RPSGEN                                  @DL30SMG 00200000
         LCLB  &B(10)                                          @DL30SMG 00250000
         LCLC  &N1,&N2,&N3,&N4,&N5,&CSNAME                          3-2 00300000
         MNOTE 0,'OBSOLETE MACRO DAMOD'                        @D14ZDBF 00350000
         MNOTE   'PLEASE DELETE MACRO CALL IN SOURCE'          @D14ZDBF 00400000
         MEND                                                  @D14ZDBF 00450000
