         MACRO                                                          00050000
&NAME    DETACH &SAVE=                                                  00100000
.*       IBM DISK OPERATING SYSTEM                                      00150000
*        SUPVR COMMN MACROS - DETACH - 5686-007-06-C44                  00200000
         AGO   .ZZZ                                            @D31UDMZ 00250000
*        THIS MACRO IS "RESTRICTED MATERIALS OF IBM"           @D31UDMZ 00300000
*        5686-007 (C) COPYRIGHT IBM CORP. 1977, 1989           @D31UDMZ 00350000
*        ALL RIGHTS RESERVED                                   @D31UDMZ 00400000
*        LICENSED MATERIALS-PROPERTY OF IBM                    @D31UDMZ 00450000
*        SEE COPYRIGHT INSTRUCTIONS, G120-2083                 @D31UDMZ 00500000
.ZZZ     ANOP                                                  @D31UDMZ 00550000
         AIF   ('&NAME' EQ '').NOMSG                                    00600000
&NAME    DS    0H                                                   3-5 00650000
.NOMSG   ANOP                                                           00700000
         AIF   (T'&SAVE EQ 'O').SR          NO SAVE AREA SPECIFIED      00750000
         AIF   ('&SAVE'(1,1) EQ '(').R1     REGISTER SPECIFIED          00800000
         L     1,=A(&SAVE)                                              00850000
         AGO   .SVC                                                     00900000
.R1      AIF   ('&SAVE'(2,2) EQ '1)').SVC   ALREADY IN REGISTER 1       00950000
         LR    1,&SAVE(1)                                               01000000
         AGO   .SVC                                                     01050000
.SR      ANOP                                                           01100000
         SR    1,1                                                      01150000
.SVC     ANOP                                                           01200000
         SVC   39                                                       01250000
         MEND                                                           01300000
