         MACRO                                                          00050000
&NAME    DFR   &NATNHP=NO,                                             X00100000
               &FONT=,                                                 X00150000
               &BCHSER=,                                               X00200000
               &BCH=,                                                  X00250000
               &ERASE=NO,                                              X00300000
               &REJECT=,                                               X00350000
               &EDCHAR=,                                               X00400000
               &CHRSET=                                                 00450000
         GBLA  &IXXFNT                                                  00500000
         GBLB  &IXXDFC,&IXXNAT                                          00550000
         LCLA  &SERBCH,&A1,&B1,&C1,&CTR,&TEMP,&ERS,&CHST                00600000
         LCLB  &OMTD                                                    00650000
         LCLC  &RJT                                                     00700000
.* IBM  DISK OPERATING SYSTEM                                           00750000
* 5745-SC-OCR  DFR      RELEASE 28                             @DL28702 00800000
*                                                                       00850000
* COPYRIGHT = THIS MACRO IS "RESTRICTED MATERIALS OF IBM"     *@D41TDKY 00900000
*             5686-007 (C) COPYRIGHT IBM CORP. 1974, 1988     *@D41TDKY 00950000
*             ALL RIGHTS RESERVED                             *@D41TDKY 01000000
*             LICENSED MATERIALS-PROPERTY OF IBM              *@D41TDKY 01050000
.*            SEE COPYRIGHT INSTRUCTIONS, G120-2083           *@D41TDKY 01100000
*                                                                       01150000
&IXXDFC  SETB  1                                                        01200000
.DD100   AIF   ('&FONT' NE '').DD110                                    01250000
.DD105   MNOTE 12,'INVALID OR OMITTED FONT OPERAND SPECIFIED. NO FORMAT*01300000
                RECORD GENERATED'                                       01350000
&IXXDFC  SETB  0                                                        01400000
         AGO   .DD150                                                   01450000
.DD110   ANOP                                                           01500000
&IXXFNT  SETA  1                                                        01550000
         AIF   ('&FONT' EQ 'MRKA').DD150                                01600000
&IXXFNT  SETA  2                                                        01650000
         AIF   ('&FONT' EQ 'MRKB').DD150                                01700000
&IXXFNT  SETA  9                                                        01750000
         AIF   ('&FONT' EQ 'NUMA').DD150                                01800000
&IXXFNT  SETA  10                                                       01850000
         AIF   ('&FONT' EQ 'ANA1').DD150                                01900000
&IXXFNT  SETA  11                                                       01950000
         AIF   ('&FONT' EQ 'ANA2').DD150                                02000000
&IXXFNT  SETA  5                                                        02050000
         AIF   ('&FONT' EQ 'NUMB').DD150                                02100000
&IXXFNT  SETA  6                                                        02150000
         AIF   ('&FONT' EQ 'ANB1').DD150                                02200000
&IXXFNT  SETA  12                                                       02250000
         AIF   ('&FONT' EQ 'NHP1').DD150                                02300000
&IXXFNT  SETA  14                                                       02350000
         AIF   ('&FONT' EQ 'NHP2').DD150                                02400000
&IXXFNT  SETA  13                                                       02450000
         AIF   ('&FONT' NE 'GOTH').DD105                                02500000
.DD150   AIF   ('&BCHSER' EQ '').DD180                                  02550000
&TEMP    SETA  1                                                        02600000
         AIF   ('&BCHSER' GE '1' AND '&BCHSER' LE '3').DD175            02650000
         MNOTE 4,'INVALID ''BCHSER'' OPERAND. ASSUME NO NUMBERING'      02700000
         AGO   .DD180                                                   02750000
.DD175   ANOP                                                           02800000
&SERBCH  SETA  &BCHSER*16                                               02850000
.DD180   AIF   ('&BCH' EQ '').DD200                                     02900000
         AIF   (&TEMP EQ 1).DD185                                       02950000
         AIF   ('&BCH' GE '1' AND '&BCH' LE '3').DD190                  03000000
.DD185   MNOTE 4,'INVALID ''BCH'' OPERAND, ASSUME NO NUMBERING'         03050000
&SERBCH  SETA  0                                                        03100000
         AGO   .DD200                                                   03150000
.DD190   ANOP                                                           03200000
&SERBCH  SETA  &BCH*16+64                                               03250000
.DD200   AIF   (&IXXDFC EQ 0).DD210                                     03300000
&NAME    DC    CL8' '                                                   03350000
         DC    AL2(IXXEND-IXXBEG+10)  FORMAT RECORD LENGTH              03400000
.DD210   AIF   ('&REJECT' EQ '').DD250                                  03450000
         AIF   (K'&REJECT NE 1).DD220                                   03500000
&RJT     SETC  '''&REJECT'''                                            03550000
         AGO   .DD235                                                   03600000
.DD220   AIF   (K'&REJECT EQ 2).DD240                                   03650000
         AIF   (K'&REJECT EQ 4 AND ('&REJECT'(2,2) EQ '''''' OR        *03700000
               '&REJECT'(2,2) EQ '&&')).DD230                           03750000
         AIF   (K'&REJECT NE 3 OR '&REJECT'(1,1) NE '''' OR            X03800000
               '&REJECT'(3,1) NE '''').DD240                            03850000
.DD230   ANOP                                                           03900000
&RJT     SETC  '&REJECT'                                                03950000
.DD235   AIF   (&IXXDFC EQ 0).DD260                                     04000000
IXXBEG   DC    C&RJT DOCUMENT INFORMATION RECORD                        04050000
         AGO   .DD260                                                   04100000
.DD240   MNOTE 4,'REJECT CHARACTER INVALID. ''3F'' USED'                04150000
.DD250   AIF   (&IXXDFC EQ 0).DD260                                     04200000
IXXBEG   DC    AL1(63) DOCUMENT INFORMATION RECORD                      04250000
.DD260   AIF   ('&ERASE' EQ '' OR '&ERASE' EQ 'NO').DD290               04300000
         AIF   ('&ERASE' NE 'YES').DD270                                04350000
&ERS     SETA  128                                                      04400000
         AGO   .DD290                                                   04450000
.DD270   MNOTE 4,'INVALID ERASE SPECIFIED. ''NO'' ASSUMED'              04500000
.DD290   AIF   ('&CHRSET' EQ '').DD310                                  04550000
         AIF   ('&CHRSET' LT '0' OR '&CHRSET' GT '5').DD300             04600000
&CHST    SETA  &CHRSET                                                  04650000
         AGO   .DD310                                                   04700000
.DD300   MNOTE 4,'INVALID CHRSET SPECIFIED. ''0'' ASSUMED'              04750000
.DD310   AIF   (&IXXDFC EQ 0).DD315                                     04800000
         DC    AL1(IXXFONT)                                             04850000
         DC    AL1(&ERS+&SERBCH+&CHST)                                  04900000
.DD315   ANOP                                                           04950000
&IXXNAT  SETB  0                                                        05000000
         AIF   ('&NATNHP' EQ '' OR '&NATNHP' EQ 'NO').DD317             05050000
         AIF   ('&NATNHP' EQ 'YES').DD316                               05100000
         MNOTE 4,'INVALID NATNHP SPECIFIED. ''NO'' ASSUMED'             05150000
         AGO   .DD317                                                   05200000
.DD316   ANOP                                                           05250000
&IXXNAT  SETB  1                                                        05300000
.DD317   ANOP                                                           05350000
&A1      SETA  1                                                        05400000
&B1      SETA  N'&EDCHAR                                                05450000
         AIF   (&B1 LE 6).DD320                                         05500000
         MNOTE 4,'MORE THAN 6 EDCHAR''S SPECIFIED. FIRST 6 USED'        05550000
&B1      SETA  6                                                        05600000
.DD320   AIF   ('&EDCHAR(&A1)' EQ '').DD370                             05650000
         AIF   (&OMTD EQ 0).DD330                                       05700000
         MNOTE 4,'EMBEDDED OMITTED EDCHAR SUBOPERAND(S) IGNORED'        05750000
&OMTD    SETB  0                                                        05800000
.DD330   AIF   (K'&EDCHAR(&A1) NE 1).DD340                              05850000
         AIF   (&IXXDFC EQ 0).DD350                                     05900000
         DC    CL1'&EDCHAR(&A1)'                                        05950000
         AGO   .DD350                                                   06000000
.DD340   AIF   (K'&EDCHAR(&A1) EQ 2).DD360                              06050000
         AIF   (K'&EDCHAR(&A1) EQ 4 AND ('&EDCHAR(&A1)'(2,2) EQ '''''' *06100000
               OR '&EDCHAR(&A1)'(2,2) EQ '&&')).DD345                   06150000
         AIF   (K'&EDCHAR(&A1) NE 3 OR '&EDCHAR(&A1)'(1,1) NE '''' OR  X06200000
               '&EDCHAR(&A1)'(3,1) NE '''').DD360                       06250000
.DD345   AIF   (&IXXDFC EQ 0).DD350                                     06300000
         DC    CL1&EDCHAR(&A1)                                          06350000
.DD350   ANOP                                                           06400000
&C1      SETA  &C1+1                                                    06450000
         AGO   .DD380                                                   06500000
.DD360   MNOTE 4,'INVALID EDCHAR SUBOPERAND. SUBOPERAND IGNORED'        06550000
         AGO   .DD380                                                   06600000
.DD370   ANOP                                                           06650000
&OMTD    SETB  1                                                        06700000
.DD380   ANOP                                                           06750000
&A1      SETA  &A1+1                                                    06800000
         AIF   (&A1 LE &B1).DD320                                       06850000
         AIF   (&IXXDFC EQ 0).DD400                                     06900000
.DD390   AIF   (&C1 GE 6).DD400                                         06950000
&C1      SETA  &C1+1                                                    07000000
         DC    AL1(0)                                                   07050000
         AGO .DD390                                                     07100000
.DD400   ANOP                                                           07150000
         MEXIT                                                          07200000
         MEND                                                           07250000
