         MACRO                                                      3-3 00050000
&NAME    DIMOD &TYPEFLE=,&IOAREA2=,&SEPASMB=,&RDONLY=,&RPS=,   @DL30SMT*00100000
               &TRC=                                           @D34YSRJ 00150000
.********************************************************************** 00200000
.*                                                                    * 00250000
.* MODULE NAME = DIMOD (IBM DISK OPERATING SYSTEM)             @DL30SMT 00300000
.*               IOX - 5686-007-02-C440                        @U31TUJS 00350000
.*                                                                    * 00400000
.* DESCRIPTIVE NAME = DEVICE INDEPENDENT FILES LOGIC MODULE    @DL30SMT 00450000
.*                                                                    * 00500000
.* COPYRIGHT = THIS MACRO IS "RESTRICTED MATERIALS OF IBM"     @D41TDKY 00550000
.*             5686-007 (C) COPYRIGHT IBM CORP. 1980,1989      @U31TUJS 00600000
.*             ALL RIGHTS RESERVED                             @D41TDKY 00650000
.*             LICENSED MATERIALS-PROPERTY OF IBM              @D41TDKY 00700000
.*             SEE COPYRIGHT INSTRUCTIONS, G120-2083           @D41TDKY 00750000
.*                                                                  3-3 00800000
.* FUNCTION    THE DEVICE INDEPENDENT LOGIC MODULE PROVIDES THE     3-3 00850000
.*             CAPABILITY OF UTILIZING GET/PUT LOGIC TO READ OR WRIT3-3 00900000
.*             RECORDS SEQUENTIALLY USING INFORMATION AS SPECIFIED  3-3 00950000
.*             IN THE DTFDI TABLE.                                  3-3 01000000
.*                                                                  3-3 01050000
.* CHANGE ACTIVITY = AS FOLLOWS:                               @DL30SMT 01100000
.*    @DL30SMT  RPS SUPPORT ADDED                              @DL30SMT 01150000
.*    @D34YS--  TRC SUPPORT ADDED                              @D34YSRJ 01200000
.*    @DA11414  SKIPPED RECORDS WHEN USING DTFDI WITH ONE      @DA11414 01250000
.*              IOAREA AND A DIMOD WITH TWO IOAREA'S           @DA11414 01300000
.*    @DA14497  MSG OP76 READING MULTI VOLUME DISKETTE FILE    @DA14497 01350000
.*              WITH TWO I/O AREA'S                            @DA14497 01400000
.*    @DA20170  REGISTER 13 NOT RESTORED IN IJJFVBIC           @DA20170 01450000
.*    @D37ZDHK  READ 81 BYTES SUPPORT                          @D37ZDHK 01500000
.*    @D62ADWS  ADAPT TO FAMILY API                            @D62ADWS 01525000
.*                                                                    * 01550000
.********************************************************************** 01600000
         LCLC  &NAM,&IO,&AR,&DIM,&A,&R                         @DL30SMT 01650000
* IOCS AND DEV INDEPENDENT I/O  DIMOD  5686-007-02-C440        @U31TUJS 01700000
*                                                              @U31TUJS 01750000
*    THIS MACRO IS "RESTRICTED MATERIALS OF IBM"               @D41TDKY 01800000
*    5686-007 (C) COPYRIGHT IBM CORP. 1977,1989                @U31TUJS 01850000
*    ALL RIGHTS RESERVED                                       @U31TUJS 01900000
*    LICENSED MATERIALS - PROPERTY OF IBM                      @U31TUJS 01950000
*    SEE COPYRIGHT INSTRUCTIONS, G120-2083                     @U31TUJS 02000000
         SPACE 2                                                    3-3 02050000
&R       SETC  'C'                                             @DL30SMT 02100000
         AIF   ('&RPS' NE 'SVA').NRPS1                         @DL30SMT 02150000
&R       SETC  'V'                                             @DL30SMT 02200000
&AR      SETC  'I'                                             @DL30SMT 02250000
&A       SETC  'C'                                             @DL30SMT 02300000
         AIF   ('&TYPEFLE' EQ 'INPUT').F1                      @DL30SMT 02350000
&IO      SETC  'B'                                             @DL30SMT 02400000
* RPS=SVA IMPLIES THE FOLLOWING OPTIONS - DISK, OUTPUT,        @DL30SMT 02450000
*         TWO I/O AREAS, SEPARATE ASSEMBLY AND READ ONLY       @DL30SMT 02500000
         AGO   .OK1A                                           @DL30SMT 02550000
.F1      ANOP                                                  @DL30SMT 02600000
&IO      SETC  'I'                                             @DL30SMT 02650000
* RPS=SVA, TYPEFLE=INPUT IMPLIES THE FOLLOWING OPTIONS - DISK, @DL30SMT 02700000
*                        TWO I/O AREAS, SEPARATE ASSEMBLY      @DL30SMT 02750000
*                        AND READ ONLY                         @DL30SMT 02800000
         AGO   .OK1A                                           @DL30SMT 02850000
.NRPS1    AIF  (T'&RDONLY EQ 'O' OR '&RDONLY' EQ 'YES').BK01        3-3 02900000
         MNOTE 0,'IMPROPER RDONLY. ''YES'' ASSUMED'                 3-3 02950000
.BK01     ANOP                                                      3-3 03000000
         AIF   (T'&TRC EQ 'O').NTRC2                           @D34YSRJ 03050000
         AIF   ('&TYPEFLE' NE 'INPUT').NTRC1                   @D34YSRJ 03100000
         MNOTE 0,'''TRC'' NOT VALID FOR INPUT, IGNORED.'       @D34YSRJ 03150000
         AGO   .NTRC2                                          @D34YSRJ 03200000
.NTRC1   ANOP                                                  @D34YSRJ 03250000
         AIF   ('&TRC' EQ 'YES' OR '&TRC' EQ 'NO').NTRC2       @D34YSRJ 03300000
         MNOTE 0,'IMPROPER TRC.  ''NO'' ASSUMED.'              @D34YSRJ 03350000
.NTRC2   ANOP                                                  @D34YSRJ 03400000
&A       SETC  'D'                                                  3-3 03450000
         AIF   ('&TYPEFLE' EQ 'INPUT' OR '&TYPEFLE' EQ 'OUTPUT').OK1B   03500000
         MNOTE 1,'INVALID OR MISSING TYPEFLE OUTPUT ASSUMED.'           03550000
.OK1B    AIF ('&IOAREA2' EQ 'YES' OR '&IOAREA2' EQ '').OK1A             03600000
         MNOTE 1,'INVALID IOAREA2 PARAMETER. 1 I/O AREA ASSUMED.'       03650000
.OK1A    AIF   (T'&NAME EQ 'O').GENAM                                   03700000
&NAM     SETC  '&NAME'                                                  03750000
         AGO   .SEP                                                     03800000
.GENAM   AIF   ('&RPS' EQ 'SVA').RD1                           @DL30SMT 03850000
         AIF   ('&TYPEFLE' NE 'INPUT').GENAM1                           03900000
&IO      SETC  'I'                                                      03950000
         AGO   .GENAM2                                                  04000000
.GENAM1  ANOP                                                           04050000
&IO      SETC  'B'                                                      04100000
.GENAM2  AIF   ('&IOAREA2' EQ 'YES').GENAM4                             04150000
&AR      SETC  'Z'                                                      04200000
         AGO   .GENAM5                                                  04250000
.GENAM4  ANOP                                                           04300000
&AR      SETC  'I'                                                      04350000
.GENAM5  AIF (T'&RDONLY EQ 'O').RD1                                 3-3 04400000
&A       SETC 'C'                                                   3-3 04450000
.RD1     ANOP                                                       3-3 04500000
&NAM     SETC  'IJJF&R&IO&AR&A'                                @DL30SMT 04550000
.SEP     AIF   ('&RPS' NE 'SVA').PREPCH                        @DL30SMT 04600000
         PUNCH ' CATALOG &NAM..OBJ   REPLACE=YES '             @D37ZDHK 04650000
         PUNCH ' PHASE  &NAM,*,NOAUTO,SVA '                    @DM08008 04700000
         AGO   .GENDCT                                         @DL30SMT 04750000
.PREPCH  AIF   ('&SEPASMB' NE 'YES').GENDCT                    @DL30SMT 04800000
.PCHCAT  PUNCH ' CATALOG &NAM..OBJ   REPLACE=YES'              @D37ZDHK 04850000
.GENDCT  ANOP                                                           04900000
&DIM     SETC  '&SYSNDX'(2,3)                                           04950000
IJJA0&DIM DSECT                                                         05000000
IJJA1&DIM DS   CL30 CCB, ADDR OF LOGIC, DTF TYPE, OPEN SW, FILE NAME    05050000
IJJA2&DIM EQU  IJJA1&DIM+2    1ST COMMUNICATION BYTE                    05100000
IJJA3&DIM EQU  IJJA1&DIM+3    2ND COMMUNICATION BYTE                    05150000
IJJA4&DIM EQU  IJJA1&DIM+4    CSW STATUS                                05200000
IJJA5&DIM EQU  IJJA1&DIM+8    CCW ADDRESS                               05250000
IJJA6&DIM EQU  IJJA1&DIM+22   FILE NAME                                 05300000
IJJA7&DIM DS   CL10 FMT1 ADDR, VOL SEQ NO,OPEN SW, XTENT SEQ NO, LD INS 05350000
IJJA8&DIM EQU  IJJA7&DIM+2    LOAD INSTRUCTION FOR SYSTEM UNIT          05400000
IJJA9&DIM DS   CL2  XTENT SEQ NO OF LAST XTENT AND OPEN INDICATOR       05450000
IJJB0&DIM EQU  IJJA9&DIM      CONSTANT FOR PUNCH                        05500000
IJJB1&DIM DS   CL1            DEVICE TYPE AND RPS INDICATOR    @DL30SMT 05550000
IJJB2&DIM DS   CL1            INDICATOR FOR OPEN AND LOGIC              05600000
IJJB3&DIM DS   CL1            LOGIC MODULE OPTION SWITCHES              05650000
IJJD9&DIM DS   CL3            I/O AREA                                  05700000
IJJB4&DIM DS   CL4            OPEN/CLOSE INDICATORS OR CCW              05750000
IJJB5&DIM DS   CL2            HH LOWER HEAD LIMIT                       05800000
IJJB6&DIM DS   CL6            CCHH UPPER XTENT LIMIT AND BB OF SEEK ADR 05850000
IJJB7&DIM EQU  IJJB6&DIM+2    PUNCH ERROR CCW IF DEVICE IS 2540 PUNCH   05900000
IJJB8&DIM DS   CL4            CCHHR OF SEEK ADDRESS                     05950000
IJJB9&DIM DS   CL4            EOF ADD                                   06000000
IJJC0&DIM EQU  IJJB9&DIM      PUNCH ERROR CCW2 IF DEVICE IS 2540 PUNCH  06050000
IJJSV&DIM EQU  IJJC0&DIM      MFCM/U PUNCH STACKER SELECT V          CI 06100000
IJJSW&DIM EQU  IJJC0&DIM+1    MFCM/U PUNCH STACKER SELECT W          CI 06150000
IJJC1&DIM DS   CL4            CONTROL BUCKET                            06200000
IJJC2&DIM DS   CL1            NO. OF RECORDS/TRACK                      06250000
IJJC3&DIM EQU  IJJC2&DIM      80 BYTE CARD IMAGE SAVE AREA              06300000
IJJC4&DIM DS   CL1            FIRST RECORD FOR INPUT OR OUTPUT          06350000
IJJC5&DIM DS   CL2            ADJUSTMENT FOR CCW ADDRESS                06400000
IJJC6&DIM DS   CL4            CCHH COUNT FIELD                          06450000
IJJC7&DIM DS   CL2            RECORD AND KEY LENGTH                     06500000
IJJC8&DIM DS   CL2            DATA LENGTH                               06550000
IJJC9&DIM DS   CL4            INSTR. TO LOAD IOREG WITH I/O AREA ADDR.  06600000
IJJD0&DIM DS   CL24           SEEK, SEARCH, TIC CCWS                    06650000
IJJD1&DIM DS   CL16           INPUT AND OUTPUT CCWS                     06700000
IJJD2&DIM DS   CL24           VERIFY CCWS                               06750000
IJJD3&DIM DS   CL8            2540 PUNCH ERROR CCW1                     06800000
IJJD4&DIM EQU  IJJD3&DIM      80 BYTE CARD IMAGE SAVE AREA              06850000
IJJD5&DIM DS   CL8            2540 PUNCH ERROR CCW2                     06900000
IJJD6&DIM DS   CL64           RESERVED FOR SAVE AREA                    06950000
IJJD7&DIM DS   CL4            WLR OPTION                                07000000
IJJD8&DIM DS   CL4            ERROPT OPTION                             07050000
IJJL9&DIM EQU  *-IJJA0&DIM    LENGTH OF DTF                    @DL30SMT 07100000
         SPACE                                                          07150000
         AIF   ('&RPS' EQ 'SVA').RPSDSCT                       @DL30SMT 07200000
         AIF   (T'&RDONLY EQ 'O').NRPS2                        @DL30SMT 07250000
IJJR1&DIM DSECT                                                @DL30SMT 07300000
*        USER REGISTER SAVE AREA FOR READ ONLY                 @DL30SMT 07350000
IJJSR&DIM EQU  13             BASE FOR SAVE AREA               @DL30SMT 07400000
IJJE3&DIM DS   CL72           REGS 2, 3, 4, 5, 6               @DL30SMT 07450000
IJJK7&DIM EQU  IJJE3&DIM+20   REG 14                           @DL30SMT 07500000
IJJL2&DIM EQU  IJJE3&DIM+24   REGS 15, 0, 1                    @DL30SMT 07550000
IJJR4&DIM EQU  IJJE3&DIM+24   REG 0'                           @DL30SMT 07600000
IJJR5&DIM EQU  IJJE3&DIM+28   REG 1'                           @DL30SMT 07650000
IJJR6&DIM EQU  IJJE3&DIM+32   REGS 2',3',4',5',6'              @DL30SMT 07700000
IJJL8&DIM EQU  IJJE3&DIM+71   360 CNTRL CHARS SWITCH           @DL30SMT 07750000
IJJR2&DIM EQU  *-IJJR1&DIM    LENGTH OF WORK SAVE AREA         @DL30SMT 07800000
         AGO   .NRPS2                                          @DL30SMT 07850000
.RPSDSCT ANOP                                                  @DL30SMT 07900000
IJJR1&DIM DSECT                                                @DL30SMT 07950000
*        RPS DTF EXTENSION WORK AREA                           @DL30SMT 08000000
IJJSR&DIM EQU  13             BASE FOR WORK AREA               @DL30SMT 08050000
          DS   14D            CCW CHAIN IN SVA                 @DL30SMT 08100000
          DS   7F             RESERVED                         @DL30SMT 08150000
IJJR4&DIM DS   F              REG 0'                           @DL30SMT 08200000
IJJR5&DIM DS   F              REG 1'                           @DL30SMT 08250000
IJJR6&DIM DS   CL1            END OF FILE INDICATOR            @DL30SMT 08300000
          DS   CL19           REGS 2',3',4',5',6'              @DL30SMT 08350000
IJJR3&DIM DS   A              DTF POINTER                      @DL30SMT 08400000
          DS   CL1            SECTOR VALUE                     @DL30SMT 08450000
          DS   CL2                                             @DL30SMT 08500000
IJJL8&DIM DS   CL1            360 CNTRL CHARS SWITCH           @DL30SMT 08550000
          DS   A              ORIGINAL CCW CHAIN PTR           @DL30SMT 08600000
          DS   A              ORIGINAL LOGIC MOD PTR           @DL30SMT 08650000
          DS   0CL72          REGISTER SAVE AREA               @DL30SMT 08700000
          DS   2F                                              @DL30SMT 08750000
          DS   0CL64          REGISTERS 13 THRU 12             @DL30SMT 08800000
IJJK4&DIM DS   F              REG 13                           @DL30SMT 08850000
IJJK7&DIM DS   F              REG 14                           @DL30SMT 08900000
IJJL2&DIM DS   3F             REGS 15, 0, 1                    @DL30SMT 08950000
IJJE3&DIM DS   5F             REGS 2, 3, 4, 5, 6               @DL30SMT 09000000
          DS   6F             REGS 7, 8, 9, 10, 11, 12         @DL30SMT 09050000
IJJR2&DIM EQU  *-IJJR1&DIM    LENGTH OF RPS EXTENSION          @DL30SMT 09100000
.NRPS2   ANOP                                                  @DL30SMT 09150000
         EJECT                                                          09200000
&NAM     CSECT                                                          09250000
         AIF   (T'&NAME NE 'O' OR '&RPS' EQ 'SVA').STRT        @DL30SMT 09300000
         AIF   ('&TYPEFLE' NE 'INPUT').NEXT1                            09350000
         AIF   ('&IOAREA2' NE 'YES').STRT                               09400000
.NEXT2   ANOP                                                           09450000
IJJFCIZ&A EQU  *                                                    3-3 09500000
         ENTRY IJJFCIZ&A                                            3-3 09550000
         AGO   .STRT                                                3-3 09600000
.NEXT1   AIF   ('&IOAREA2' NE 'YES').NEXT2                          3-3 09650000
IJJFCBZ&A EQU *                                                     3-3 09700000
IJJFCII&A EQU *                                                     3-3 09750000
IJJFCIZ&A EQU *                                                     3-3 09800000
         ENTRY IJJFCBZ&A,IJJFCIZ&A,IJJFCII&A                        3-3 09850000
         AGO   .STRT                                                3-3 09900000
.STRT    USING *,IJJBR&DIM    BASE FOR LOGIC                            09950000
         USING IJJA1&DIM,IJJTR&DIM ESTABLISH BASE FOR TABLE             10000000
         AIF   ('&RPS' EQ 'SVA' OR T'&RDONLY NE 'O').RPS1      @DL30SMT 10050000
         AGO   .NRPS3                                          @DL30SMT 10100000
.RPS1    USING IJJR1&DIM,IJJSR&DIM REG 13, WORK & SAVE BASE    @DL30SMT 10150000
.NRPS3   DS    0F                                              @DL30SMT 10200000
IJJE0&DIM SVC  50             ILLEGAL ENTRY                             10250000
         DC    H'0'                                                     10300000
         B     IJJE0&DIM      ILLEGAL ENTRY                             10350000
         B     IJJE1&DIM      ENTRY FOR GET                             10400000
         AIF   ('&TYPEFLE' EQ 'INPUT').ILL                              10450000
         B     IJJE1&DIM      ENTRY FOR PUT                             10500000
         AGO   .ILL1                                                    10550000
.ILL     B     IJJE0&DIM      ILLEGAL ENTRY FOR INPUT                   10600000
.ILL1    B     IJJE0&DIM      ILLEGAL ENTRY                             10650000
         B     IJJE0&DIM      ILLEGAL ENTRY                             10700000
         B     IJJE2&DIM      ENTRY FOR ERROPT EQUAL SKIP      @DL30SMT 10750000
         B     IJJ8J&DIM      ENTRY FOR ERROPT EQUAL IGNORE    @D37ZDHK 10800000
         DC    CL8'&NAM'                                                10850000
         DC    X'3440'  /*@@LVLID*/ VERSION AND MOD LEVEL      @D41TDKY 10900000
         AIF   ('&RPS' NE 'SVA').NRPS4                         @DL30SMT 10950000
         DS    0H                                              @D34DE97 11000000
         DC    X'FFFFD9E5FFFF'         LOGIC MOD LEVEL ID      @D34DE97 11050000
         DC    X'3440'  /*@@LVLID*/    LOGIC MOD RELEASE LVL   @D41TDKY 11100000
IJJE1&DIM L    IJJTR&DIM,IJJA5&DIM LOAD RPS EXT ADDR           @DL30SMT 11150000
         ST    IJJSR&DIM,192(IJJTR&DIM) SAVE REG 13            @DL30SMT 11200000
         LR    IJJSR&DIM,IJJTR&DIM LOAD EXTENSION BASE         @DL30SMT 11250000
         L     IJJTR&DIM,IJJR3&DIM RESTORE DTF ADDRESS         @DL30SMT 11300000
         STM   IJJUR&DIM,IJJER&DIM,IJJK7&DIM SAVE REGISTERS    @DL30SMT 11350000
         AGO   .RPS2                                           @DL30SMT 11400000
.NRPS4   ANOP                                                  @DL30SMT 11450000
         DS    0H                                              @D34DE97 11500000
         DC    X'FFFFD9E5FFFF'         LOGIC MOD LEVEL ID      @D34DE97 11550000
         DC    X'3440'  /*@@LVLID*/    LOGIC MOD RELEASE LVL   @D41TDKY 11600000
IJJE1&DIM STM  IJJWR&DIM,IJJRR&DIM,IJJE3&DIM SAVE USERS REGISTERS   3-3 11650000
.RPS2    ANOP                                                  @DL30SMT 11700000
IJJE2&DIM L    IJJRR&DIM,IJJA5&DIM LOAD CCW ADDRESS            @DL30SMT 11750000
         AIF   ('&TYPEFLE' EQ 'INPUT').A1                               11800000
         CLI   IJJA7&DIM,IJJE4&DIM 2540 PUNCH                           11850000
         AIF   ('&IOAREA2' NE 'YES' AND '&RPS' NE 'SVA').A2    @DL30SMT 11900000
         BE    IJJE5&DIM           NO                                   11950000
         AGO   .A1                                                      12000000
.A2      BE    IJJE6&DIM           NO                                   12050000
.A1      AH    IJJRR&DIM,IJJC5&DIM ADJUST ADDRESS FOR TABLE TYPE        12100000
         AIF   ('&RPS' NE 'SVA').NRPS5                         @DL30SMT 12150000
         LA    IJJRR&DIM,8(IJJRR&DIM) ADD MORE FOR RPS         @DL30SMT 12200000
.NRPS5   AIF   ('&IOAREA2' NE 'YES' AND '&RPS' NE 'SVA').A3    @DL30SMT 12250000
IJJE5&DIM TM   IJJB3&DIM,IJJE7&DIM OVERLAP AND/OR FIRST PASS            12300000
         BO    IJJE8&DIM           NOT FIRST PASS BUT OVERLAP           12350000
         OI    IJJB3&DIM,IJJJ9&DIM SET NOT FIRST PASS SW.           4-0 12400000
         BAL   IJJLR&DIM,IJJE6&DIM GET I/O                              12450000
.A3      AIF   ('&TYPEFLE' EQ 'INPUT').A4                               12500000
         AIF   ('&IOAREA2' NE 'YES' AND '&RPS' NE 'SVA').A5    @DL30SMT 12550000
IJJE8&DIM BAL  IJJMR&DIM,IJJH8&DIM TEST FOR CHANNEL END                 12600000
.B3      ANOP                                                           12650000
IJJI0&DIM EQU  *                                               @D34YSRJ 12700000
         AIF   ('&TYPEFLE' EQ 'INPUT').B3B                     @D34YSRJ 12750000
         AIF   ('&TRC' NE 'YES').B3B                           @D34YSRJ 12800000
         TM    IJJB1&DIM,IJJF2&DIM     IS THIS A PRINTER       @D34YSRJ 12850000
         BNO   IJJI3&DIM               BR NO                   @D34YSRJ 12900000
IJJI1&DIM EQU  *                                               @D34YSRJ 12950000
         TM    IJJB4&DIM,IJJMC&DIM     IS TRC INDICATED        @D34YSRC 13000000
         BZ    IJJI3&DIM               BR NO                   @D34YSRJ 13050000
         AIF   ('&IOAREA2' NE 'YES').B3A                       @D34YSRJ 13100000
         TM    IJJB3&DIM,IJJH3&DIM     ARE THERE 2 I/O AREAS   @D34YSRJ 13150000
         BNO   IJJI2&DIM               BR NO                   @D34YSRJ 13200000
         TM    5(IJJRR&DIM),IJJMP&DIM  PRIOR TRC INDICATED     @D34YSRC 13250000
         BNO   IJJI3&DIM               BR NO                   @D34YSRJ 13300000
         L     IJJGR&DIM,0(IJJRR&DIM)  LOAD DATA ADDR FROM CCW @D34YSRJ 13350000
IJJI2&DIM EQU  *                                               @D34YSRJ 13400000
.B3A     ANOP                                                  @D34YSRJ 13450000
         LH    IJJMR&DIM,6(,IJJRR&DIM) LOAD COUNT IN REG       @D34YSRJ 13500000
         LA    IJJMR&DIM,1(,IJJMR&DIM) INCR COUNT IN REG       @D34YSRJ 13550000
         STH   IJJMR&DIM,6(,IJJRR&DIM) PUT COUNT IN CCW        @D34YSRJ 13600000
         BCTR  IJJGR&DIM,0             DECR DATA ADDR          @D34YSRJ 13650000
         STCM  IJJGR&DIM,7,1(IJJRR&DIM) PUT DATA ADDR INTO CCW @D34YSRJ 13700000
IJJI3&DIM EQU  *                                               @D34YSRJ 13750000
.B3B     ANOP                                                  @D34YSRJ 13800000
         TM    IJJA4&DIM,IJJF0&DIM HAS UNIT EXCEPTION OCCURRED @D34YSRJ 13850000
         BO    IJJJ1&DIM           YES                                  13900000
         TM    IJJA4&DIM+1,IJJG0&DIM TEST FOR WLR ERROR                 13950000
         BO    IJJK5&DIM           YES                                  14000000
         TM    IJJA3&DIM,IJJH3&DIM TEST FOR READ ERROR                  14050000
         BO    IJJK6&DIM               YES                              14100000
         B     IJJJ8&DIM               GO TO USER                       14150000
         AIF   ('&TYPEFLE' EQ 'INPUT').B4                               14200000
IJJJ1&DIM TM   IJJB1&DIM,IJJF2&DIM IS DEVICE A PRINTER                  14250000
         BO    IJJJ8&DIM           YES, HANDLED BY LINE COUNT           14300000
         TM    IJJB3&DIM,IJJF4&DIM SYSLST OR SYSPCH ON OUTPUT TAPE      14350000
         BO    IJJF3&DIM           TO EOV ROUTINE                       14400000
         AIF   ('&IOAREA2' NE 'YES' AND '&RPS' NE 'SVA').BB    @DL30SMT 14450000
         L     IJJPR&DIM,IJJB9&DIM EOF ADDRESS INTO REGISTER            14500000
         NI    IJJB3&DIM,X'FF'-IJJJ9&DIM RESET NOT F.P. SW.         4-0 14550000
         L     IJJUR&DIM,0(IJJRR&DIM)  CCW I/O AREA ADDRESS         3-7 14600000
         B     IJJF5&DIM                                                14650000
.A5      ANOP                                                           14700000
IJJE6&DIM TM   IJJB2&DIM,IJJF7&DIM      IS DEVICE A READER, TAPE OR DSK 14750000
         BO    IJJF8&DIM                A DISK                          14800000
         BM    IJJF9&DIM                DEVICE IS A READER OR TAPE      14850000
         TM    IJJB3&DIM,IJJG0&DIM      IS EJECT NEEDED FOR ADR-PUNCH   14900000
         BZ    IJJG1&DIM                NO EJECT NEEDED                 14950000
         NI    IJJB3&DIM,IJJG2&DIM      INDICATE NO EJECT NEEDED        15000000
         BAL   IJJMR&DIM,IJJG3&DIM      EJECT FIRST CARD                15050000
IJJG1&DIM L    IJJGR&DIM,0(IJJRR&DIM)   LOAD CCW ADDRESS                15100000
         BCTR  IJJGR&DIM,0              POINT TO CONTROL CHARACTER      15150000
         TM    IJJB1&DIM,IJJMF&DIM      TEST MFCM/U                  CI 15200000
         BZ    IJJAS&DIM                NO, TEST ASA CONTROL CHAR    CI 15250000
         SH    IJJRR&DIM,IJJC5&DIM      ADJUST POINTER TO 1ST CCW    CI 15300000
         OI    4(IJJRR&DIM),X'60'       SET CHAIN BIT IN 1ST CCW     CI 15350000
         MVC   0(1,IJJRR&DIM),IJJSW&DIM STACKER SELECT W TO 1ST CC   CI 15400000
         CLI   0(IJJGR&DIM),IJJCW&DIM   TEST W CONTROL CHAR          CI 15450000
         BE    IJJAD&DIM                RETURN                       CI 15500000
         MVC   0(1,IJJRR&DIM),IJJSV&DIM STACKER SELECT V TO 1ST CC   CI 15550000
         CLI   0(IJJGR&DIM),IJJCV&DIM   TEST V CONTROL CHAR          CI 15600000
         BE    IJJAD&DIM                RETURN                       CI 15650000
         MVC   0(1,IJJRR&DIM),0(IJJGR&DIM) CTL CHAR TO 1ST CC        CI 15700000
IJJAD&DIM AH   IJJRR&DIM,IJJC5&DIM      ADJUST POINTER TO 2ND CCW    CI 15750000
         B     IJJF9&DIM                RETURN                       CI 15800000
IJJAS&DIM EQU  *                                                     CI 15850000
         MVI   IJJL8&DIM,X'00'     RESET CONTROL CHARACTER INDICATOR3-3 15900000
         TM    0(IJJGR&DIM),X'F0'      TEST FOR ASA CONTROL CHARACTERS  15950000
         BO    IJJL4&DIM               YES                              16000000
         CLI   0(IJJGR&DIM),X'C1'      *************************   3-3  16050000
         BE    IJJL4&DIM               * TEST FOR VALID ASA    *    3-3 16100000
         CLI   0(IJJGR&DIM),X'C2'      * A/C. OTHER IS SPACE   *    3-3 16150000
         BE    IJJL4&DIM               * ASA OR 360 CONT. CHAR *    3-3 16200000
         CLI   0(IJJGR&DIM),X'C3'      * OR INVALID, WHICH     *    3-3 16250000
         BE    IJJL4&DIM               * TST IS BELOW.         *    3-3 16300000
         LH    IJJPR&DIM,IJJM0&DIM     *************************    3-3 16350000
         LA    IJJMR&DIM,IJJL3&DIM     SET REGISTER TO POINT TO ASA     16400000
         LA    IJJMR&DIM,18(IJJMR&DIM) CHARACTERS FOR COMPARSION        16450000
IJJL7&DIM CLC 0(1,IJJGR&DIM),0(IJJMR&DIM) TEST FOR ASA CONTROL CHAR     16500000
         BE    IJJL4&DIM               YES                              16550000
         BCTR  IJJMR&DIM,0                                              16600000
         BCT   IJJPR&DIM,IJJL7&DIM                                      16650000
         MVI   IJJL8&DIM,X'01'         SET SW INDICATING 360 CHAR       16700000
         AIF   ('&TYPEFLE' EQ 'INPUT').A6A                     @D34YSRJ 16750000
         AIF   ('&TRC' NE 'YES').A6A                           @D34YSRJ 16800000
         TM    IJJB1&DIM,IJJF2&DIM      IS THIS A PRINTER      @D34YSRJ 16850000
         BNO   IJJXW&DIM                BR NO                  @D34YSRJ 16900000
         TM    IJJB4&DIM,IJJMC&DIM      TRC INDICATED          @D34YSRC 16950000
         BZ    IJJXX&DIM                BR NO                  @D34YSRJ 17000000
         TM    IJJB4&DIM,IJJMB&DIM      3800 INDICATED         @D34YSRC 17050000
         BO    IJJLA&DIM                BR IF 3800             @D34YSRC 17100000
         MVI   5(IJJRR&DIM),IJJMP&DIM   SHOW ADDR/CNT ADJUSTED @D34YSRC 17150000
         B     IJJLB&DIM                GO ADJUST ADDR & CNT   @D34YSRC 17200000
IJJLA&DIM EQU  *                        DEVICE IS A 3800       @D34YSRC 17250000
         MVI   0(IJJRR&DIM),0           CLEAR CCW CMD CODE     @D34YSRC 17300000
         MVN   0(1,IJJRR&DIM),1(IJJGR&DIM) GET LO-ORDER OF TRC @D34YSRC 17350000
         TR    0(1,IJJRR&DIM),IJJMT&DIM TRANSLATE INTO OP CODE @D34YSRJ 17400000
         CLC   0(1,IJJRR&DIM),5(IJJRR&DIM) GIVEN TRC=CURR TRC  @D34YSRJ 17450000
         BE    IJJLB&DIM                BR YES, NO TRC CCW     @D34YSRJ 17500000
         EXCP  (1)                      ISSUE EXCP FOR TRC     @D34YSRJ 17550000
         MVC   5(1,IJJRR&DIM),0(IJJRR&DIM) SAVE TRC CODE       @D34YSRJ 17600000
         IWAIT (1)                      WAIT FOR COMPLETION    @D62ADWS 17650000
IJJLB&DIM EQU  *                                               @D34YSRJ 17700000
         LA    IJJMR&DIM,2(IJJGR&DIM)   INCR FR CTLCHR TO DATA @D14ZDBF 17750000
         STCM  IJJMR&DIM,7,1(IJJRR&DIM) PUT DATA ADDR INTO CCW @D14ZDBF 17800000
         LH    IJJMR&DIM,6(,IJJRR&DIM)  LOAD COUNT IN REG      @D34YSRJ 17850000
         BCTR  IJJMR&DIM,0              DECR CNT BY 1 FOR TRC  @D34YSRJ 17900000
         STH   IJJMR&DIM,6(,IJJRR&DIM)  PUT COUNT IN CCW       @D34YSRJ 17950000
         B     IJJXX&DIM                BYPASS CONVERSION      @D34YSRJ 18000000
         AGO   .A6B                                            @D34YSRJ 18050000
.A6A     ANOP                                                  @D34YSRJ 18100000
         B     IJJL6&DIM     360 CHARACTERS, BYPASS CONVERSION          18150000
.A6B     ANOP                                                  @D34YSRJ 18200000
IJJL4&DIM LR   IJJMR&DIM,IJJPR&DIM   EQUATE REGISTERS                   18250000
         IC    IJJPR&DIM,0(IJJGR&DIM)  CONTROL CHAR TO REGISTER         18300000
         LA    IJJGR&DIM,IJJG4&DIM     NO. OF CHAR TO COMPARE           18350000
IJJG5&DIM IC   IJJMR&DIM,IJJL3&DIM.(IJJGR&DIM) ASA CHAR FROM TABLE      18400000
         CR    IJJMR&DIM,IJJPR&DIM     SAME CHAR                        18450000