         MACRO                                                          00050000
&NAME    DLINT &LFR=,&LINBEG=,&IMAGE=,&NOSCAN=,&FREND=,                X00100000
               &FLD1=,&EDIT1=,&FLD2=,&EDIT2=,&FLD3=,&EDIT3=,           X00150000
               &FLD4=,&EDIT4=,&FLD5=,&EDIT5=,&FLD6=,&EDIT6=,           X00200000
               &FLD7=,&EDIT7=,&FLD8=,&EDIT8=,&FLD9=,&EDIT9=,           X00250000
               &FLD10=,&EDIT10=,&FLD11=,&EDIT11=,&FLD12=,&EDIT12=,     X00300000
               &FLD13=,&EDIT13=,&FLD14=,&EDIT14=                        00350000
         GBLA  &IXXEND,&IXXI3,&IXXNSC(51),&IXXSIZ,&IXXFLN,&IXXFEA(14)   00400000
         GBLB  &IXXLFR(64),&IXXDFC,&IXXIMG,&IXXFLD,&IXXDEL,&IXXER1      00450000
         GBLB  &IXXFT(6),&IXXNAT                                        00500000
         LCLA  &I1,&I2,&I4,&HOLD,&LMARTN,&LMARDG,&I8,&FRNPO             00550000
         LCLB  &B1,&B2,&B3,&B4,&NFNT1,&NFNT2                            00600000
.* IBM DISK OPERATING SYSTEM                                   @DL28702 00650000
* 5745-SC-OCR  DLINT    RELEASE 28                             @DL28702 00700000
*                                                                       00750000
* COPYRIGHT = THIS MACRO IS "RESTRICTED MATERIALS OF IBM"     *@D41TDKY 00800000
*             5686-007 (C) COPYRIGHT IBM CORP. 1974, 1988     *@D41TDKY 00850000
*             ALL RIGHTS RESERVED                             *@D41TDKY 00900000
*             LICENSED MATERIALS-PROPERTY OF IBM              *@D41TDKY 00950000
.*            SEE COPYRIGHT INSTRUCTIONS, G120-2083           *@D41TDKY 01000000
*                                                                       01050000
         ACTR  9999                                                     01100000
         AIF   (&IXXDFC EQ 1).DL010                                     01150000
         MNOTE 12,'DFR MACRO INVALIDLY SPECIFIED. DLINT IGNORED'        01200000
         AGO   .END                                                     01250000
.DL010   AIF   ('&LFR' NE '').DL030                                     01300000
.DL020   MNOTE 8,'LFR PARAMETER INVALIDLY SPECIFIED. DLINT IGNORED'     01350000
         AGO   .END                                                     01400000
.DL030   AIF   (T'&LFR NE 'N').DL020                                    01450000
         AIF   (&LFR GT 63).DL020                                       01500000
&FRNPO   SETA  &LFR+1                                                   01550000
         AIF   (&IXXLFR(&FRNPO) EQ 0).DL040                             01600000
         MNOTE 8,'LFR=&LFR ON PREVIOUS DLINT. THIS DLINT IGNORED'       01650000
         AGO   .END                                                     01700000
.DL040   ANOP                                                           01750000
&IXXLFR(&FRNPO) SETB 1                                                  01800000
         AIF   ('&LINBEG' NE '').DL060                                  01850000
.DL050   MNOTE 8,'LINBEG PARAMETER INVALID OR NOT SPECIFIED. DLINT IGNOX01900000
               RED'                                                     01950000
         AGO   .END                                                     02000000
.DL060   AIF   (T'&LINBEG NE 'N').DL050                                 02050000
         AIF   (&LINBEG LT 4 OR &LINBEG GT 86).DL050           @DM05901 02100000
&IXXEND  SETA  &LINBEG                                                  02150000
&IXXI3   SETA  0                                                        02200000
         AIF   ('&NOSCAN' EQ '').DL150                                  02250000
.DL070   ANOP                                                           02300000
&I2      SETA  &I2+1                                                    02350000
         AIF   (T'&NOSCAN(&I2) EQ 'O').DL120                            02400000
         AIF   (T'&NOSCAN(&I2) EQ 'N').DL090                            02450000
.DL080   MNOTE 8,'NOSCAN OPERAND &I2 INVALID. OPERAND &I2 IGNORED'      02500000
         AGO   .DL120                                                   02550000
.DL090   AIF   (&NOSCAN(&I2) LE &IXXEND OR &NOSCAN(&I2) GT 88).DL080    02600000
&IXXI3   SETA  &IXXI3+1                                                 02650000
&I4      SETA  0                                                        02700000
.DL100   ANOP                                                           02750000
&I4      SETA  &I4+1                                                    02800000
         AIF   (&NOSCAN(&I2) NE &IXXNSC(&I4)).DL110                     02850000
&IXXI3   SETA  &IXXI3-1                                                 02900000
         AGO   .DL080                                                   02950000
.DL110   AIF   (&I4 LT &IXXI3).DL100                                    03000000
&IXXNSC(&IXXI3) SETA &NOSCAN(&I2)                                       03050000
.DL120   AIF   (N'&NOSCAN GT &I2).DL070                                 03100000
         AIF   (&IXXI3 LE 1).DL150                                      03150000
&I4      SETA  1                                                        03200000
&I2      SETA  2                                                        03250000
.DL130   AIF   (&IXXNSC(&I4) LT &IXXNSC(&I2)).DL140                     03300000
&HOLD    SETA  &IXXNSC(&I4)                                             03350000
&IXXNSC(&I4) SETA &IXXNSC(&I2)                                          03400000
&IXXNSC(&I2) SETA &HOLD                                                 03450000
.DL140   ANOP                                                           03500000
&I2      SETA  &I2+1                                                    03550000
         AIF   (&I2 LE &IXXI3).DL130                                    03600000
&I4      SETA  &I4+1                                                    03650000
&I2      SETA  &I4+1                                                    03700000
         AIF   (&I4 LT &IXXI3).DL130                                    03750000
.DL150   ANOP                                                           03800000
&IXXIMG  SETB  0                                                        03850000
         AIF   ('&IMAGE' EQ '').DL170                                   03900000
         AIF   ('&IMAGE' EQ 'NO').DL170                                 03950000
         AIF   ('&IMAGE' NE 'YES').DL160                                04000000
&IXXIMG  SETB  1                                                        04050000
         AGO   .DL170                                                   04100000
.DL160   MNOTE 4,'IMAGE PARAMETER INVALID. NO ASSUMED'                  04150000
.DL170   ANOP                                                           04200000
&B1      SETB  (('&FLD1' NE '') OR ('&FLD2' NE '') OR                  X04250000
                ('&FLD3' NE '') OR ('&FLD4' NE ''))                     04300000
&B2      SETB  (('&FLD5' NE '') OR ('&FLD6' NE '') OR                  X04350000
                ('&FLD7' NE '') OR ('&FLD8' NE ''))                     04400000
&B3      SETB  (('&FLD9' NE '') OR ('&FLD10' NE '') OR                 X04450000
               ('&FLD11' NE '') OR ('&FLD12' NE ''))                    04500000
&B4      SETB  (('&FLD13' NE '') OR ('&FLD14' NE ''))                   04550000
         AIF   (&B1 OR &B2 OR &B3 OR &B4).DL180                         04600000
         MNOTE 8,'NO FLDX PARAMETER SPECIFIED. DLINT IGNORED'           04650000
&I4      SETA  0                                                        04700000
.DL175   AIF   (&I4 EQ &IXXI3).DL250                                    04750000
&I4      SETA  &I4+1                                                    04800000
&IXXNSC(&I4) SETA 0                                                     04850000
         AGO   .DL175                                                   04900000
.DL180   ANOP                                                           04950000
&IXXSIZ  SETA  &IXXSIZ+4                                                05000000
         AIF   (&IXXSIZ GT 212).DL183                                   05050000
&NAME    DC    AL1(&LFR)          LINE INFORMATION RECORD               05100000
&HOLD    SETA  &IXXEND-4                                                05150000
&LMARTN  SETA  &HOLD/10                                                 05200000
&LMARDG  SETA  &HOLD-(10*&LMARTN)                                       05250000
         DC    AL1(&LMARTN*16+&LMARDG)                                  05300000
         DC    AL1(&IXXIMG*128)                                         05350000
         AGO   .DL187                                                   05400000
.DL183   ANOP                                                           05450000
&IXXER1  SETB  1                                                        05500000
.DL187   ANOP                                                           05550000
&IXXDEL  SETB  0                                                        05600000
&IXXFLD  SETB  0                                                        05650000
&IXXFLN  SETA  0                                                        05700000
         DLINTIN 0,&FLD1,&FLD2,&FLD3,&FLD4,&FLD5,&FLD6,&FLD7,          X05750000
               &FLD8,&FLD9,&FLD10,&FLD11,&FLD12,&FLD13,&FLD14           05800000
         DLINTIN 1,&FLD1,&EDIT1                                         05850000
         DLINTIN 2,&FLD2,&EDIT2                                         05900000
         DLINTIN 3,&FLD3,&EDIT3                                         05950000
         DLINTIN 4,&FLD4,&EDIT4                                         06000000
         DLINTIN 5,&FLD5,&EDIT5                                         06050000
         DLINTIN 6,&FLD6,&EDIT6                                         06100000
         DLINTIN 7,&FLD7,&EDIT7                                         06150000
         DLINTIN 8,&FLD8,&EDIT8                                         06200000
         DLINTIN 9,&FLD9,&EDIT9                                         06250000
         DLINTIN 10,&FLD10,&EDIT10                                      06300000
         DLINTIN 11,&FLD11,&EDIT11                                      06350000
         DLINTIN 12,&FLD12,&EDIT12                                      06400000
         DLINTIN 13,&FLD13,&EDIT13                                      06450000
         DLINTIN 14,&FLD14,&EDIT14                                      06500000
&I1      SETA  1                                                        06550000
.DL189   ANOP                                                           06600000
&IXXFEA(&I1) SETA 0                                                     06650000
&I1      SETA  &I1+1                                                    06700000
         AIF   (&I1 LT 15).DL189                                        06750000
         AIF   (&IXXFLD EQ 1).DL190                                     06800000
         MNOTE 12,'NO VALID FIELDS FOUND FOR LINE. INVALID FORMAT RECORX06850000
               D GENERATED'                                             06900000
.DL190   AIF   (&IXXDEL EQ 0).DL220                                     06950000
         MNOTE 12,'LAST FIELD CHARACTER DELIMITED. INVALID FORMAT RECORX07000000
               D GENERATED'                                             07050000
.DL220   AIF   (&IXXI3 EQ 0).DL245                                      07100000
&I8      SETA  0                                                        07150000
.DL230   ANOP                                                           07200000
&I8      SETA  &I8+1                                                    07250000
         AIF   (&IXXNSC(&I8) EQ 0).DL240                                07300000
         AIF   (&IXXNSC(&I8) GT &IXXEND).DL232                          07350000
         MNOTE 4,'NOSCAN FIELD END &IXXNSC(&I8) NOT NEEDED. IGNORED'    07400000
         AGO   .DL234                                                   07450000
.DL232   ANOP                                                           07500000
&IXXSIZ  SETA  &IXXSIZ+4                                                07550000
         AIF   (&IXXSIZ GT 212).DL233                                   07600000
&HOLD    SETA  &IXXNSC(&I8)-4                                           07650000
&LMARTN  SETA  &HOLD/10                                                 07700000
&LMARDG  SETA  &HOLD-(10*&LMARTN)                                       07750000
         DC    AL1(&LMARTN*16+&LMARDG)      NOSCAN FIELD                07800000
         DC    AL1(128)                                                 07850000
         DC    AL1(0)                                                   07900000
         DC    AL1(0)                                                   07950000
         AGO   .DL234                                                   08000000
.DL233   ANOP                                                           08050000
&IXXER1  SETB  1                                                        08100000
.DL234   ANOP                                                           08150000
&IXXNSC(&I8) SETA 0                                                     08200000
.DL240   AIF   (&I8 LT &IXXI3).DL230                                    08250000
.DL245   AIF   (&IXXER1 EQ 0).DL248                                     08300000
         MNOTE 12,'MAXIMUM FORMAT RECORD REACHED. LINES AND FIELDS MAY X08350000
               BE IGNORED'                                              08400000
.DL248   ANOP                                                           08450000
         DC    X'FF'                      *** END OF LINE           *** 08500000
.DL250   AIF   ('&FREND' EQ '').END                                     08550000
         AIF   ('&FREND' NE 'YES').DL260                                08600000
         AIF   (&IXXFT(6) NE 1).DL255                                   08650000
         AIF   (&IXXFT(2) EQ 1).DL255                                   08700000
&IXXFT(1) SETB 1                                                        08750000
.DL255   ANOP                                                           08800000
&NFNT1   SETB  (&IXXFT(5) AND &IXXNAT)                                  08850000
&NFNT2   SETB  (&IXXFT(5) AND NOT(&IXXNAT))                             08900000
IXXFONT  EQU   &IXXFT(1)*128+&IXXFT(2)*64+&IXXFT(3)*32+&IXXFT(4)*16+&NFX08950000
               NT2*8+&NFNT1*4                                           09000000
         DC    X'FF'              *** END OF FORMAT RECORD          *** 09050000
IXXEND   EQU   *                                                        09100000
         AGO   .END                                                     09150000
.DL260   AIF   ('&FREND' EQ 'NO').END                                   09200000
         MNOTE 8,'FREND PARAMETER INVALIDLY SPECIFIED. NO ASSUMED'      09250000
.END     MEXIT                                                          09300000
         MEND                                                           09350000
