         MACRO                                                          00050000
&NAME    DRMOD &DEVICE=3886,                                           X00100000
               &SEPASMB=,                                              X00150000
               &SETDEV=,                                               X00200000
               &RDONLY=                                                 00250000
         LCLC  &SD,&DV,&RD,&CL1,&ENT,&LAB                               00300000
.* IBM DISK OPERATING SYSTEM                                   @DL28702 00350000
* 5745-SC-OCR  DRMOD    RELEASE 32                             @DL28702 00400000
*                                                                       00450000
* COPYRIGHT = THIS MACRO IS "RESTRICTED MATERIALS OF IBM"     *@D41TDKY 00500000
*             5686-007 (C) COPYRIGHT IBM CORP. 1974, 1988     *@D41TDKY 00550000
*             ALL RIGHTS RESERVED                             *@D41TDKY 00600000
*             LICENSED MATERIALS-PROPERTY OF IBM              *@D41TDKY 00650000
.*            SEE COPYRIGHT INSTRUCTIONS, G120-2083           *@D41TDKY 00700000
*                                                                       00750000
&CL1     SETC  '&SYSNDX'(2,3)                                           00800000
&SD      SETC  'Z'                                                      00850000
          AIF   ('&DEVICE' EQ '3886').D0010                             00900000
         MNOTE 0,'INVALID DEVICE,ASSUME 3886'                           00950000
.D0010   ANOP                                                           01000000
&DV      SETC  '0'                                                      01050000
         AIF   (T'&RDONLY EQ 'O' OR '&RDONLY' EQ 'YES').D0020           01100000
         MNOTE 0,'INVALID RDONLY.ASSUME YES'                            01150000
.D0020   AIF   (T'&SETDEV EQ 'O').D0040                                 01200000
         AIF   ('&SETDEV' EQ 'YES').D0030                               01250000
         MNOTE 0,'INVALID SETDEV SPECIFIED. ASSUME YES'                 01300000
.D0030   ANOP                                                           01350000
&SD      SETC  'S'                                                      01400000
.D0040   ANOP                                                           01450000
&LAB     SETC  'IJMZ&SD.ZD&DV'                                          01500000
         AIF   (T'&RDONLY EQ 'O').D0050                                 01550000
&LAB     SETC  'IJMZ&SD.RD&DV'                                          01600000
.D0050   AIF   (T'&NAME EQ 'O').D0060                                   01650000
&LAB     SETC  '&NAME'                                                  01700000
.D0060   AIF   (T'&SEPASMB EQ 'O').D0080                                01750000
         AIF   ('&SEPASMB' EQ 'YES').D0070                              01800000
         MNOTE 0,'INVALID SEPASMB. ASSUME YES'                          01850000
.D0070   PUNCH '    CATALR &LAB,5.0'                                    01900000
.D0080   ANOP                                                           01950000
IJMDS&CL1 DSECT                                                         02000000
          DS    CL2                    RESIDUAL COUNT                   02050000
IJMCB&CL1 DS    CL2                    COMM BYTES                       02100000
IJMST&CL1 DS    CL2                    CSW STATUS BYTES                 02150000
          DS    CL2                    LOGICAL UNIT ADDRESS             02200000
IJMCA&CL1 DS    CL1                    RESERVED FOR LIOCS               02250000
          DS    CL3                    CCW ADDR ASSOC WITH THIS CCB     02300000
          DS    CL1                    RESERVED FOR PIOCS               02350000
          DS    CL3                    CCW ADDR IN CSW                  02400000
          DS    CL4                    ADDR OF LOGIC MODULE             02450000
          DS    CL1                    DTF TYPE                         02500000
IJMPS&CL1 DS    CL1                    PIOCS SWITCHES                   02550000
          DS    CL1                    NOT USED                         02600000
IJMLS&CL1 DS    CL1                    LIOCS SWITCHES                   02650000
IJMIF&CL1 DS    CL8                    INIT FORMAT RECORD NAME          02700000
IJMCF&CL1 DS    CL8                    CURRENT FORMAT RECORD NAME       02750000
          DS    CL4                    NOT USED                         02800000
IJMFA&CL1 DS    CL4                    ADDR OF START OF FR AREA         02850000
IJMFE&CL1 DS    CL4                    ADDR OF END OF FR AREA           02900000
IJMEF&CL1 DS    CL4                    EOF ADDRESS                      02950000
IJMSC&CL1 DS    CL8                    SCAN COMMAND                     03000000
IJMRC&CL1 DS    CL8                    READ COMMAND FOR DATA            03050000
IJMCC&CL1 DS    CL8                    CNTRL COMMAND(ESD,PMK,LMK)       03100000
IJMFC&CL1 DS    CL8                    LOAD FORMAT COMMAND              03150000
IJMCE&CL1 DS    CL4                    CORRECTION EXIT ADDR             03200000
IJMIO&CL1 DS    CL4                    IOAREA ADDRESS                   03250000
IJMHA&CL1 DS    CL4                    HEADER ADDR                      03300000
IJMIA&CL1 DS    CL4                    EXIT INDICATOR ADDR              03350000
IJMDR&CL1 DS    CL150                  DATA RECORD AREA                 03400000
IJMFR&CL1 EQU   *                      FORMAT RECORD AREA               03450000
&LAB      CSECT                                                         03500000
          AIF   (T'&NAME NE 'O').D0090                                  03550000
          AIF   ('&SD' NE 'S').D0090                                    03600000
&ENT      SETC  '&LAB'(1,4)'Z'.'&LAB'(6,3)                              03650000
          ENTRY &ENT                                                    03700000
&ENT      EQU   *                                                       03750000
.D0090    USING IJMDS&CL1,IJM01&CL1    BASE FOR DTF                     03800000
          USING *,IJMR5&CL1            BASE REG FOR LOGIC MODULE        03850000
          B     IJMCM&CL1              BRANCH TO CONTROL                03900000
          B     IJMWT&CL1              BRANCH TO WAITF                  03950000
          B     IJMRD&CL1              BRANCH TO READ                   04000000
          SVC   IJML1&CL1              ILLEGAL ENTRY                    04050000
          DC    1H'0'                                                   04100000
          AIF   ('&SD' NE 'S').D0100                                    04150000
          B     IJMSD&CL1              BRANCH TO SETDEV                 04200000
          AGO   .D0110                                                  04250000
.D0100    SVC   IJML1&CL1              ILLEGAL ENTRY                    04300000
          DC    1H'0'                                                   04350000
.D0110    ANOP                                                          04400000
*                                                                       04450000
* START OF READ MOD                                                     04500000
*                                                                       04550000
          AIF   (T'&RDONLY NE 'O').D0120                                04600000
IJMRD&CL1 ST   IJMR9&CL1,IJMSU&CL1     SAVE REG 9                       04650000
          AGO   .D0130                                                  04700000
.D0120    ANOP                                                          04750000
IJMRD&CL1 ST   IJMR9&CL1,0(IJMR3&CL1)  SAVE REG 9                       04800000
.D0130    TM    IJMPS&CL1,IJMLZ&CL1    DTFDR FILE OPENED                04850000
          BO    IJMRA&CL1              YES,READ RECORD                  04900000
          SVC   IJML1&CL1              SVC 50 FILE NOT OPENED           04950000
IJMRA&CL1 L     IJMR9&CL1,IJMIA&CL1    GET INDICATOR ADDR               05000000
          MVI   0(IJMR9&CL1),IJML8&CL1 INIT ERR IND BYTE                05050000
          ST    IJM00&CL1,IJMSC&CL1    MOVE FIELD ADDR INTO CCW         05100000
          MVI   IJMSC&CL1,IJMLU&CL1    SET OP CODE FOR SCAN             05150000
          LA    IJMR9&CL1,IJMSC&CL1    LOAD ADDR OF SCAN CCW            05200000
          ST    IJMR9&CL1,IJMCA&CL1    STORE CCW ADDR IN CCB            05250000
          SVC   IJML2&CL1              EXCP-READ LINE                   05300000
          AIF   (T'&RDONLY NE'O').D0140                                 05350000
          L    IJMR9&CL1,IJMSU&CL1     RESTORE REG 9                    05400000
          AGO   .D0150                                                  05450000
.D0140    L     IJMR9&CL1,0(IJMR3&CL1) RESTORE REG 9                    05500000
.D0150    BR    IJMR4&CL1              RETURN TO USER                   05550000
*                                                                       05600000
* START OF  WAITF                                                       05650000
*                                                                       05700000
          AIF   (T'&RDONLY NE 'O').D0160                                05750000
IJMWT&CL1 STM   IJMR9&CL1,IJMR0&CL1,IJMSU&CL1 SAVE REG 9,10             05800000
          AGO   .D0170                                                  05850000
.D0160    ANOP                                                          05900000
IJMWT&CL1 STM   IJMR9&CL1,IJMR0&CL1,0(IJMR3&CL1) SAVE REG 9,10          05950000
.D0170    TM    0(IJMR4&CL1),IJML0&CL1 IS THIS MULTIPLE WAIT            06000000
          BM    IJMW1&CL1              NO                               06050000
          SVC   IJML1&CL1              YES,MULTIPLE WAIT INVALID        06100000
IJMW1&CL1 TM    IJMCB&CL1,IJML3&CL1    I/O COMPLETE                     06150000
          BO    IJMW2&CL1              YES,CONTINUE                     06200000
          SVC   IJMLL&CL1              NO,WAIT                          06250000
IJMW2&CL1 TM    IJMCB&CL1+1,IJMLY&CL1   ANY ERRORS                      06300000
          BNZ   IJMW3&CL1              YES, DO NOT MOVE DATA            06350000
          L     IJMR0&CL1,IJMIO&CL1    GET ADDR OF USER IOAREA          06400000
          LH    IJMR9&CL1,IJMRC&CL1+6  GET LENGTH OF DATA RECORD        06450000
          SH    IJMR9&CL1,IJMH5&CL1    SUB LENGTH OF HEADER REC + 1     06500000
          EX    IJMR9&CL1,IJMMD&CL1    MOVE DATA TO USER IOAREA         06550000
          L     IJMR9&CL1,IJMHA&CL1    LOAD ADDR OF HEADER AREA         06600000
          MVC   0(IJMD4&CL1,IJMR9&CL1),IJMDR&CL1 MOVE HEADER TO USER    06650000
IJMW3&CL1 B     IJMEC&CL1              BR TO EOF/ERCHK ROUTINE @DA09951 06700000
          AIF   ('&SD' EQ 'Z').D0340                                    06750000
*                                                                       06800000
* START OF SETDEV                                                       06850000
*                                                                       06900000
IJMSD&CL1 TM    IJMLS&CL1,IJML6&CL1    SETDEV SPECIFIED IN DTF          06950000
          BNO   IJMSB&CL1               NO ISSUE CANCEL                 07000000
          TM    IJMPS&CL1,IJMLZ&CL1     DTFDR FILE OPENED               07050000
          BO    IJMS0&CL1              YES, SAVE REGISTERS              07100000
IJMSB&CL1 SVC   IJML1&CL1              NO INVALID SETDEV                07150000
          AIF   (T'&RDONLY NE 'O').D0240                                07200000
IJMS0&CL1 STM   IJMR9&CL1,IJMR2&CL1,IJMSU&CL1 SAVE REG  9-12            07250000
          AGO   .D0250                                                  07300000
.D0240    ANOP                                                          07350000
IJMS0&CL1 STM   IJMR9&CL1,IJMR2&CL1,0(IJMR3&CL1) SAVE REG  9-12         07400000
.D0250    L     IJMR9&CL1,IJMIA&CL1    GET ER IND ADDR                  07450000
          MVI   0(IJMR9&CL1),IJML8&CL1 INIT ERR IND BYTE                07500000
          L     IJMR0&CL1,IJMFA&CL1    GET FR ADDR                      07550000
          L     IJMR1&CL1,IJMFE&CL1    GET ADDR OF END OF FR AREA       07600000
          OI    IJMLS&CL1,IJMLK&CL1    TURN ON  LOAD FCR SWITCH         07650000
          LR    IJMR9&CL1,IJM00&CL1    LOAD ADDR OF PHASENAME           07700000
IJMS1&CL1 CLC   0(8,IJMR0&CL1),0(IJMR9&CL1) CORRECT PHASENAME           07750000
          BE    IJMS5&CL1              YES,WRITE FR  TO DEVICE          07800000
          CLC   0(IJMD2&CL1,IJMR1&CL1),IJMZR&CL1 LAST PTR IN CHAIN      07850000
          BE    IJMS2&CL1              YES,LOAD FR  FROM DISK           07900000
          L     IJMR1&CL1,0(IJMR1&CL1) GET ADDR OF NEXT PTR             07950000
          LA    IJMR0&CL1,IJMD2&CL1.(IJMR1&CL1) GET ADDR OF NEXT FR     08000000
          B     IJMS1&CL1              GO CHECK NEXT PHASE NAME         08050000
IJMS2&CL1 L     IJMR0&CL1,IJMFA&CL1    GET ADDR OF FR AREA              08100000
          LR    IJMR2&CL1,IJMR1&CL1    GET LAST AVAIL ADDR              08150000
          SH    IJMR2&CL1,8(IJMR0&CL1) SUB LENGTH OF FR                 08200000
          SH    IJMR2&CL1,IJMH1&CL1    SUB LENGTH OF PTR                08250000
          LR    IJMR9&CL1,IJMR0&CL1    LOAD ADDR OF FR                  08300000
          AH    IJMR9&CL1,8(IJMR0&CL1) ADD LENGTH OF FR                 08350000
          CR    IJMR2&CL1,IJMR9&CL1    STARTING ADDR OVERLAP WITH FR    08400000
          BL    IJMS3&CL1              YES, DO NOT MOVE FR              08450000
          LH    IJMR9&CL1,8(IJMR0&CL1) GET LENGTH OF MOVE INST          08500000
          BCTR  IJMR9&CL1,IJM00&CL1    SUB 1 FROM LENGTH                08550000
          EX    IJMR9&CL1,IJMMV&CL1    MOVE FR  TO NEXT AVAIL SLOT      08600000
          MVC   0(IJMD2&CL1,IJMR2&CL1),IJMZR&CL1 SET PTR FOR END        08650000
          ST    IJMR2&CL1,0(IJMR1&CL1) SET BACK CHAIN PTR IN MOVED FR   08700000
          AIF   (T'&RDONLY NE 'O').D0260                                08750000
IJMS3&CL1 STM   IJM00&CL1,IJM01&CL1,IJMSV&CL1+4  SAVE REG 0+1           08800000
          AGO   .D0270                                                  08850000
.D0260    ANOP                                                          08900000
IJMS3&CL1 STM   IJM00&CL1,IJM01&CL1,28(IJMR3&CL1) SAVE REG 0+1          08950000
.D0270    LR    IJM01&CL1,IJM00&CL1    REG 1 POINTS TO PHASENAME        09000000
          LR    IJM00&CL1,IJMR0&CL1    REG 0 POINTS TO LOAD ADDR        09050000
          ILOAD (IJM01&CL1),(IJM00&CL1) LOAD PHASE FROM DISK   @D62ADWS 09100000
          AIF   (T'&RDONLY NE 'O').D0280                                09150000
          LM    IJM00&CL1,IJM01&CL1,IJMSV&CL1+4 RESTORE REG 0+1         09200000
          AGO   .D0290                                                  09250000
.D0280    LM    IJM00&CL1,IJM01&CL1,28(IJMR3&CL1) RESTORE REG 0+1       09300000
.D0290    LR    IJMR9&CL1,IJM00&CL1    LOAD ADDR OF PHASENAME           09350000
          MVC   0(8,IJMR0&CL1),0(IJMR9&CL1) MOVE PHASENAME  INTO FR     09400000
          CLC   8(IJMD1&CL1,IJMR0&CL1),IJMH2&CL1 LENGTH < 28            09450000
          BL    IJMS4&CL1              YES, INVALID                     09500000
          CLC   8(IJMD1&CL1,IJMR0&CL1),IJMH3&CL1 LENGTH LE 232          09550000
          BNH   IJMS6&CL1              YES  OK                          09600000
IJMS4&CL1 SVC   IJML1&CL1              FR  LENGTH INVALID               09650000
IJMS5&CL1 NI    IJMLS&CL1,IJMLI&CL1    TURN OFF LOAD FR  SWITCH         09700000
IJMS6&CL1 LH    IJMR9&CL1,8(IJMR0&CL1)   GET FR LENGTH                  09750000
          SH    IJMR9&CL1,IJMH4&CL1    SUB 10 FROM LENGTH               09800000
          STH   IJMR9&CL1,IJMFC&CL1+6  INSERT LENGTH INTO LF CCW        09850000
          LR    IJMR9&CL1,IJMR0&CL1    LOAD ADDR OF FR                  09900000
          LA    IJMR9&CL1,IJMD3&CL1.(IJMR9&CL1) SKIP NAME + LENGTH      09950000
          ST    IJMR9&CL1,IJMFC&CL1    INSERT FCR ADDR IN LF CCW        10000000
          MVI   IJMFC&CL1,IJMLJ&CL1    INSERT LF OP CODE  IN CCW        10050000
          LA    IJMR9&CL1,IJMFC&CL1    GET ADDR OF LF CCW               10100000
          ST    IJMR9&CL1,IJMCA&CL1    PUT CCW ADDR IN CCB              10150000
          OI    IJMCB&CL1,IJMLB&CL1    POST TRAFFIC BIT AT DE           10200000
          SVC   IJML2&CL1              EXEC LF CCW                      10250000
          TM    IJMLS&CL1,IJMLK&CL1    LOAD FR  SW ON                   10300000
          BZ    IJMS8&CL1              NO,GO RESTORE REGS               10350000
          AH    IJMR0&CL1,8(IJMR0&CL1) GET CURRENT FR  HIGH ADDR        10400000
          CR    IJMR0&CL1,IJMR2&CL1    WIPE OUT AN FR                   10450000
          BNH   IJMS8&CL1              NO,GO RESTORE REGS               10500000
          L     IJMR1&CL1,IJMFE&CL1    GET HIGHEST ADDR AVAIL           10550000
          CR    IJMR0&CL1,IJMR1&CL1    FR  TOO LARGE                    10600000
          BNH   IJMS7&CL1              NO                               10650000
          SVC   IJML1&CL1              FR  TOO LARGE                    10700000
IJMS7&CL1 LR    IJMR2&CL1,IJMR1&CL1   SAVE ADDR OF PTR                  10750000
          L     IJMR1&CL1,0(IJMR1&CL1) GET ADDR OF NEXT PTR             10800000
          CR    IJMR0&CL1,IJMR1&CL1    WIPE OUT THIS FR                 10850000
          BNH   IJMS7&CL1              NO,GO CHECK NEXT FR              10900000
          MVC   0(IJMD2&CL1,IJMR2&CL1),IJMZR&CL1 IND END OF CHAIN       10950000
          AIF   (T'&RDONLY NE 'O').D0300                                11000000
IJMS8&CL1 LM    IJMR9&CL1,IJMR2&CL1,IJMSU&CL1  RESTORE REG  9-12        11050000
          AGO   .D0310                                                  11100000
.D0300    ANOP                                                          11150000
IJMS8&CL1 LM    IJMR9&CL1,IJMR2&CL1,0(IJMR3&CL1) RESTORE REG  9-12      11200000
.D0310    TM    IJMCB&CL1,IJML3&CL1    I/O COMPLETE                     11250000
          BO    IJMS9&CL1              YES,CONTINUE                     11300000
          SVC   IJMLL&CL1              NO,WAIT                          11350000
IJMS9&CL1 NI    IJMCB&CL1,IJMLC&CL1    SET TRAFFIC BIT TO CE            11400000
          TM    IJMCB&CL1+1,IJMLT&CL1  PERM OR  NON-REC ERROR           11450000
          BM    IJMSA&CL1              YES,DO NOT UPDATE PHASENAME      11500000
          LR    IJMR9&CL1,IJM00&CL1    LOAD ADDR OF PHASENAME           11550000
          MVC   IJMCF&CL1.(8),0(IJMR9&CL1) UPDATE PHASENAME IN DTF      11600000
IJMSA&CL1 B     IJMEC&CL1          BRANCH TO EOF AND ER CK RTN @DM01571 11650000
.D0340    ANOP                                                          11700000
*                                                                       11750000
* START OF  CONTROL                                                     11800000
*                                                                       11850000
          AIF   (T'&RDONLY NE 'O').D0350                                11900000
IJMCM&CL1 STM   IJMR9&CL1,IJMR0&CL1,IJMSU&CL1 SAVE REG 9,10    @DA09951 11950000
          AGO   .D0360                                                  12000000
.D0350    ANOP                                                          12050000
IJMCM&CL1 STM   IJMR9&CL1,IJMR0&CL1,0(IJMR3&CL1) SAVE REG 9,10 @DA09951 12100000
.D0360    TM    IJMPS&CL1,IJMLZ&CL1    DTFDR FILE OPENED                12150000
          BO    IJMC4&CL1               YES                             12200000
          SVC   IJML1&CL1              NO,CANCEL JOB                    12250000
IJMC4&CL1 L     IJMR9&CL1,IJMIA&CL1    GET ADDR OF ER IND BYTE          12300000
          MVI   0(IJMR9&CL1),IJML8&CL1 INIT ERR IND BYTE                12350000
          CLI   IJMCC&CL1,IJMLV&CL1    CONTROL CMND EJECT               12400000
          BNE   IJMC0&CL1              NO                               12450000
          LR   IJMR9&CL1,IJM00&CL1     LOAD ADDR OF EJECT FIELD         12500000
          NI    0(IJMR9&CL1),IJMLW&CL1 RESET EJECT FIELD                12550000
          CLC   IJMD5&CL1.(IJMD5&CL1,IJMR9&CL1),IJMZR&CL1 ENABLE TIMING 12600000
          BE    IJMC1&CL1              NO                               12650000
          OC    0(IJMD5&CL1,IJMR9&CL1),IJMD5&CL1.(IJMR9&CL1) SET TIMING 12700000
          OI    0(IJMR9&CL1),IJMLX&CL1 ENABLE TIMING MARKS              12750000
          B     IJMC1&CL1                                               12800000
IJMC0&CL1 CLI   IJMCC&CL1,IJMLA&CL1    CONTROL CMND LMK                 12850000
          BNE   IJMC1&CL1              NO                               12900000
          MVI   IJMCC&CL1.+7,IJMLG&CL1 YES, MOVE 2 INTO CCW LENGTH CT   12950000
          B     IJMC2&CL1                                               13000000
IJMC1&CL1 MVI   IJMCC&CL1.+7,IJMLD&CL1 SET CCW LENGTH CT TO 1           13050000
IJMC2&CL1 STH   IJM00&CL1,IJMCC&CL1+2        STORE FIELD                13100000
          SRL   IJM00&CL1,16                 ADDRESS IN                 13150000
          STC   IJM00&CL1,IJMCC&CL1+1        CCW                        13200000
          LA    IJMR9&CL1,IJMCC&CL1    GET CNTRL CCW ADDR               13250000
          ST    IJMR9&CL1,IJMCA&CL1    STORE CNTRL CCW ADDR IN CCB      13300000
          OI    IJMCB&CL1,IJMLB&CL1    SET CCB TO WAIT FOR DE           13350000
          SVC   IJML2&CL1              EXCP CNTRL                       13400000
          TM    IJMCB&CL1,IJML3&CL1    IO COMPLETE                      13450000
          BO    IJMC3&CL1              YES,CONTINUE                     13500000
          SVC   IJMLL&CL1              NO,WAIT                          13550000
IJMC3&CL1 NI    IJMCB&CL1,IJMLC&CL1    SET TRAFFIC BIT BACK TO CE       13600000
          B     IJMEC&CL1              BRANCH TO EOF AND ER CK RTN      13650000
*                                                                       13700000
* EOF + ERROR CHECKING ROUTINE                                          13750000
*                                                                       13800000
IJMEC&CL1 L     IJMR9&CL1,IJMIA&CL1    GET ADDR OF ERR IND BYTE         13850000
          TM    IJMST&CL1,IJML9&CL1    UNIT EXCEPTION                   13900000
          BO    IJME0&CL1              YES                              13950000
          TM    IJMCB&CL1+1,IJMLO&CL1  MARK CHECK + EQ CK BIT ON IN CCB 14000000
          BO    IJME2&CL1              YES                              14050000
          TM    IJMCB&CL1+1,IJML4&CL1  NON-REC BIT ON IN CCB            14100000
          BO    IJME3&CL1              YES                              14150000
          TM    IJMCB&CL1+1,IJMLM&CL1  INCOMP SCAN BIT ON IN CCB        14200000
          BO    IJME4&CL1              YES                              14250000
          TM    IJMCB&CL1+1,IJMLE&CL1  MARK CHECK BIT ON IN CCB         14300000
          BO    IJME5&CL1              YES                              14350000
          TM    IJMCB&CL1+1,IJMLN&CL1  PERMANENT ERROR BIT ON IN CCB    14400000
          BO    IJME6&CL1              YES                              14450000
          B     IJME1&CL1              RETURN TO USER                   14500000
IJME0&CL1 L     IJMR4&CL1,IJMEF&CL1    GET EOF RTN ADDR                 14550000
          AIF   (T'&RDONLY NE 'O').D0405                                14600000
IJME1&CL1 LM    IJMR9&CL1,IJMR0&CL1,IJMSU&CL1 RES REG 9,10     @DA09951 14650000
          AGO   .D0410                                                  14700000
.D0405    ANOP                                                          14750000
IJME1&CL1 LM    IJMR9&CL1,IJMR0&CL1,0(IJMR3&CL1) RES REG 9,10  @DA09951 14800000
.D0410    BR    IJMR4&CL1              RETURN TO USER                   14850000
IJME2&CL1 MVI   0(IJMR9&CL1),IJMLQ&CL1 SET TO MARK CHECK AND EQUIP CK   14900000
          B     IJME7&CL1              BRANCH TO COREXIT ROUTINE        14950000
IJME3&CL1 MVI   0(IJMR9&CL1),IJML5&CL1 SET ERR IND BYTE FOR NON-REC     15000000
          B     IJME7&CL1              BRANCH TO COREXIT RTN            15050000
IJME4&CL1 EQU   *                                                       15100000
          AIF    (T'&RDONLY NE 'O').D0411                      @DA00762 15150000
          STM    IJMR6&CL1,IJMR7&CL1,IJMSV&CL1+12    SAVE REGS 6 AND 7  15200000
*                                      TO MAKE IT REENTRANT    @DA00762 15250000
          AGO   .D0412                                         @DA00762 15300000
.D0411    STM    IJMR6&CL1,IJMR7&CL1,52(IJMR3&CL1)   SAVE REGS 6 AND 7  15350000
*                                      TO MAKE IT REENTRANT    @DA00762 15400000
.D0412    ANOP                                                 @DA00762 15450000
          L     IJMR6&CL1,IJMFE&CL1    PT TO END OF FORMAT RECORD AREA  15500000
*                                                              @DA00762 15550000
          LA    IJMR6&CL1,4(IJMR6&CL1) PT TO SAVE AREA         @DA00762 15600000
          MVC   0(16,IJMR6&CL1),0(IJM01&CL1)  SAVE CCB         @DA00762 15650000
          MVC   16(3,IJMR6&CL1),IJMPS&CL1   SAVE PIOCS & LIOCS SWITCHS  15700000
*                                                              @DA00762 15750000
          MVI   IJMRC&CL1,X'02'        SET OPCODE FOR READ     @DA00762 15800000
          LA    IJMR7&CL1,IJMRC&CL1    LOAD ADDR OF READ CCW   @DA00762 15850000
          STCM  IJMR7&CL1,7,IJMCA&CL1+1 PUT ADDR OF CCW IN CCB @DA00762 15900000
          L     IJMR7&CL1,IJMIA&CL1    GET INDICATOR ADDR      @DA00762 15950000
          MVI   0(IJMR7&CL1),IJML8&CL1 INIT ERROR INDICATOR    @DA00762 16000000
          EXCP  (IJM01&CL1)                                    @DA00762 16050000
          IWAIT (IJM01&CL1)                                    @D62ADWS 16100000
          TM    IJMCB&CL1+1,IJMLY&CL1  ANY ERRORS?             @DA00762 16150000
          BNZ   IJMEE&CL1              IF SO THEN ANALYZE THEM @DA00762 16200000
          MVC   0(16,IJM01&CL1),0(IJMR6&CL1) RESTORE CCB IN DTF@DA00762 16250000
          MVC   21(3,IJM01&CL1),16(IJMR6&CL1) RESTORE SWITCHES @DA00762 16300000
          MVI   0(IJMR9&CL1),IJMLP&CL1 SET ERR IND BYTE FOR INCP SCN    16350000
*                                                              @DA00762 16400000
          L     IJMR0&CL1,IJMIO&CL1    GET ADDR OF USER IOAREA @DA00762 16450000
          LH    IJMR9&CL1,IJMRC&CL1+6  GET LENGTH OF DATA RECORD        16500000
*                                                              @DA00762 16550000
          SH    IJMR9&CL1,IJMH5&CL1    SUB LENGTH OF HEADER REC + 1     16600000
*                                                              @DA00762 16650000
          EX    IJMR9&CL1,IJMMD&CL1    MOVE DATA TO USER IOAREA         16700000
*                                                              @DA00762 16750000
          L     IJMR9&CL1,IJMHA&CL1    LOAD ADDR OF HEADER AREA         16800000
*                                                              @DA00762 16850000
          MVC   0(IJMD4&CL1,IJMR9&CL1),IJMDR&CL1 MOVE HEADER TO USER    16900000
*                                                              @DA00762 16950000
          AIF   (T'&RDONLY NE 'O').D0413                       @DA00762 17000000
          LM    IJMR6&CL1,IJMR7&CL1,IJMSV&CL1+12  RESTORE REGS 6&7      17050000
*                                                              @DA00762 17100000
          AGO   .D0414                                         @DA00762 17150000
.D0413    LM    IJMR6&CL1,IJMR7&CL1,52(IJMR3&CL1) RESTORE REGS 6&7      17200000
*                                                              @DA00762 17250000
.D0414    ANOP                                                 @DA00762 17300000
          B     IJME8&CL1              BRANCH TO COREXIT ROUTINE        17350000
IJMEE&CL1 EQU   *                                                       17400000
          AIF   (T'&RDONLY NE 'O').D0421                       @DA00762 17450000
          LM    IJMR6&CL1,IJMR7&CL1,IJMSV&CL1+12  RESTORE REGS 6&7      17500000
*                                                              @DA00762 17550000
          AGO   .D0422                                         @DA00762 17600000
.D0421    LM    IJMR6&CL1,IJMR7&CL1,52(IJMR3&CL1) RESTORE REGS 6&7      17650000
*                                                              @DA00762 17700000
.D0422    ANOP                                                 @DA00762 17750000
          B     IJMEC&CL1              ERROR CHECKING          @DA09951 17800000
IJME5&CL1 MVI   0(IJMR9&CL1),IJMLF&CL1 SET ERR IND BYTE FOR MARK CHECK  17850000
          B     IJME8&CL1              BRANCH TO COREXIT ROUTINE        17900000
IJME6&CL1 MVI   0(IJMR9&CL1),IJMLR&CL1 SET ERR IND BYTE TO PERM ERR     17950000
          AIF   (T'&RDONLY NE 'O').D0415                                18000000
IJME7&CL1 LM    IJMR9&CL1,IJMR0&CL1,IJMSU&CL1 RES REG 9,10     @DA09951 18050000
          AGO   .D0420                                                  18100000
.D0415    ANOP                                                          18150000
IJME7&CL1 LM    IJMR9&CL1,IJMR0&CL1,0(IJMR3&CL1) RES REG 9,10  @DA09951 18200000
.D0420    TM    IJMLS&CL1,IJML7&CL1     CONTROL IN COREXIT              18250000
          BO    IJMEA&CL1               YES                             18300000
          L     IJMR4&CL1,IJMCE&CL1    GET USER COREXIT RTN ADDR        18350000
IJMEA&CL1 NI    IJMLS&CL1,IJMLH&CL1    RESET CONTROL SWITCH             18400000
          BR    IJMR4&CL1              EXIT TO COREXIT RTN              18450000
          AIF   (T'&RDONLY NE 'O').D0425                                18500000