         MACRO                                                          00050000
&NAME    DSPLY &FILE,&REG1,&REG2                                        00100000
.* IBM DISK OPERATING SYSTEM                                   @DC28702 00150000
* 5745-SC-OCR DSPLY RELEASE 28.0                               @DC28702 00200000
*                                                                       00250000
* COPYRIGHT = THIS MACRO IS "RESTRICTED MATERIALS OF IBM"     *@D41TDKY 00300000
*             5686-007 (C) COPYRIGHT IBM CORP. 1974, 1988     *@D41TDKY 00350000
*             ALL RIGHTS RESERVED                             *@D41TDKY 00400000
*             LICENSED MATERIALS-PROPERTY OF IBM              *@D41TDKY 00450000
.*            SEE COPYRIGHT INSTRUCTIONS, G120-2083           *@D41TDKY 00500000
*                                                                       00550000
         AIF   (T'&FILE NE 'O').DS1                                     00600000
         MNOTE 0,'NO FILE NAME SPECIFIED.SET TO ''*'''                  00650000
&NAME    L     1,=A(*)  ****ERROR-PATCH DTF TABLE ADDRESS               00700000
         AGO   .DS4                                                     00750000
.DS1     AIF   ('&FILE'(1,1) EQ '(').DS2                                00800000
&NAME    L     1,=A(&FILE)  GET DTF TABLE ADDRESS                       00850000
         AGO .DS4                                                       00900000
.DS2     AIF   ('&FILE(1)' EQ '1').DS3                                  00950000
&NAME    LR    1,&FILE(1)  GET DTF TABLE ADDRESS                        01000000
         AGO   .DS4                                                     01050000
.DS3     ANOP                                                           01100000
&NAME    DC    0H'0'                                                    01150000
.DS4     AIF   (T'&REG2 EQ 'O').DS6                                     01200000
         AIF   ('&REG2'(1,1) NE '(').DS5                                01250000
         MVC   88(8,1),0(&REG2(1))  GET LANDMARK CCW                    01300000
         AIF   (T'&REG1 EQ 'O').DS6                                     01350000
         AIF   ('&REG1'(1,1) NE '(').DS5                                01400000
         MVC   96(16,1),0(&REG1(1))  GET LOAD FORMAT CCW                01450000
         L     15,16(1)  GET LOGIC MODULE ADDRESS                       01500000
         BAL   14,20(15)  BRANCH TO DSPLY ROUTINE                       01550000
         MEXIT                                                          01600000
.DS5     MNOTE 9,'INVALID OPERAND SPECIFICATION,MACRO TERMINATED'       01650000
         MEXIT                                                          01700000
.DS6     MNOTE 9,'OPERAND MISSING,MACRO TERMINATED'                     01750000
         MEXIT                                                          01800000
         MEND                                                           01850000
