         MACRO                                                          00050000
&NAME    DTFCD &BLKSIZE=,&CONTROL=,&CRDERR=,&CTLCHR=,&DEVADDR=,&DEVICE=100100000
               2540,&EOFADDR=,&IOAREA1=,&IOAREA2=,&IOREG=,&OUBLKSZ=,&RE200150000
               CFORM=FIXUNB,&RECSIZE=,&SSELECT=,&TYPEFLE=INPUT,&WORKA=,300200000
               &MODNAME=,&SEPASMB=,&RDONLY=,&MODE=,&FUNC=,&ERROPT=,    400250000
               &ASOCFLE=                                            4-0 00300000
         GBLC  &CG2                                            @D33FDVS 00350000
         LCLA  &AL2,&AL3,&AL4,&AL5,&AL6,&AL8,&AL9,&BLKS,&OUBL,&RPA,&CC,100400000
               &FLAG,&ASF,&N,&E                                     4-0 00450000
         LCLA  &COLBIN  COLUMN BINARY BIT IN CCW (X'20')  2560       JJ 00500000
         LCLA  &SWS       LOGIC SWITCHES - X'80' = 2560              JJ 00550000
.*                                         X'40' = 5425        @DL2994J 00600000
         LCLA  &STACKER  STACKER BIT PATTERN IN CCW (2560,5425)@DL2994J 00650000
         LCLA  &HOPPER  HOPPER SPECIFICATION BIT IN CCW (X'80')      JJ 00700000
.*                      FOR 2560 AND 5425                      @DL2994J 00750000
         LCLA  &EOFL  LENGTH OF EOF IDENTIFIER (2 OR 4)              JJ 00800000
         LCLA  &FL  FLAGGS IN CCW                                    JJ 00850000
         LCLA  &PCC   PUNCH COMMAND CODE (2560,5425)           @DL2994J 00900000
         LCLA  &RCC   READ COMMAND CODE (2560,5425)            @DL2994J 00950000
         LCLA  &NCH                                                  JJ 01000000
         LCLB  &BL1,&RPB,&OBLK881,&BL2                         @D33FDVS 01050000
         LCLC  &CG1,&SFX,&CNTL,&WKIO,&IOA2,&RECF,&IOA1,&RECZ,&IOG,&FUN,101100000
               &DMOD,&AL1,&FUNCT,&FMOD                         @D33FDVS 01150000
         LCLC  &RFM      FIRST CHARACTER OF RECFORM            @D14BDBF 01200000
.************************************************************* @D149DBF 01250000
.* IBM DISK OPERATING SYSTEM                                            01300000
.*                                                             @D149DBF 01350000
.*    01 COPYRIGHT =                                           @D149DBF 01400000
* IOCS AND DEVICE INDEPENDANT I/O - DTFCD -5686-007-02-C440    @U31TUJS 01450000
.*                                                             @D149DBF 01500000
*           5686-007 (C) COPYRIGHT IBM CORP. 1981,1989         @U31TUJS 01550000
*           LICENSED MATERIAL - PROGRAM PROPERTY OF IBM        @D149DBF 01600000
.*          REFER TO COPYRIGHT INSTRUCTIONS                    @D149DBF 01650000
.*          FORM NUMBER G120-2083                              @D149DBF 01700000
.*                                                             @D149DBF 01750000
.************************************************************* @D149DBF 01800000
.*                                                             @D14BDBF 01850000
.************************************************************* @D14BDBF 01900000
.*   CHANGE ACTIVITIES :                                       @D14BDBF 01950000
.*   @D14BDBF - 512 BYTES SYSIPT FOR POWER SPOOLED DEVICES     @D14BDBF 02000000
.*                                                             @D14BDBF 02050000
.*  AUTOMATICALLY GENERATED NAME OF LOGIC MODULE IS CHANGED    @DA28247 02100000
.*  FOR A 3881.THE LAST CHARACTER WILL NOW BE 'P'.             @DA28247 02150000
.*  THE PUNCH CARD WAS INCORRECT WAS &NAME.OBJ                 @DA35316 02200000
.*                           MUST BE &NAME..OBJ                @DA35316 02250000
.************************************************************* @D14BDBF 02300000
&RECF    SETC  '&RECFORM'       MOVE RECFORM INTO LCLC VARIABLE@D14BDBF 02350000
&CG1     SETC  '&DEVICE'(1,4)                                           02400000
         AIF   ('&CG1' NE '3504').NO3504                       @DC28914 02450000
&CG1     SETC  '3505'                                          @DC28914 02500000
.NO3504  ANOP                                                  @DC28914 02550000
&SFX     SETC  '&SYSNDX'                                                02600000
&RPA     SETA  33                                                   4-0 02650000
&RPB     SETB  ('&CG1' EQ '3505' OR '&CG1' EQ '3525' OR '&CG1' EQ '2560*02700000
               ' OR '&CG1' EQ '5425')                          @DL2994J 02750000
&DMOD    SETC  'E'                                                  4-0 02800000
&FMOD    SETC  'Z'                                                  4-0 02850000
&FUN     SETC  '7'                                                  4-0 02900000
         AIF   ('&CG1' NE '2560').JJ0                                JJ 02950000
&FUN     SETC  '8'                                                   JJ 03000000
&E       SETA  4  POST AT DEVICE END BIT IN CCB                @DL2994J 03050000
.JJ0     AIF   ('&CG1' NE '5425').JJ11                         @DL2994J 03100000
&E       SETA  4  POST AT DEVICE END BIT IN CCB                @DL2994J 03150000
&FUN     SETC  '9'                                                   JJ 03200000
.JJ11    AIF   (K'&NAME LT 8).ADREM                                  JJ 03250000
         MNOTE 9,'FILE NAME EXCEEDS SEVEN CHAR LIMIT, MACRO GENERATION *03300000
               TERMINATED'                                              03350000
         MEXIT                                                          03400000
.ADREM   AIF   (NOT &RPB).OMR001                               @DL28701 03450000
         AIF   ('&TYPEFLE' EQ 'CMBND').JLG5                         4-0 03500000
         AIF   (T'&MODE EQ 'O').JLGE                                4-0 03550000
         AIF   ('&CG1' EQ '5425').JLG2A                        @DL2994J 03600000
&N       SETA  K'&MODE                                              4-0 03650000
         AIF   ('&MODE' EQ 'E' OR '&MODE' EQ 'C').JLGD              4-0 03700000
         AIF   ('&CG1' EQ '2560').JLG2A                              JJ 03750000
         AIF   ('&TYPEFLE' EQ 'OUTPUT').JLG2                        4-0 03800000
.JLGB    AIF   ('&MODE' EQ 'R' OR '&MODE' EQ 'ER' OR '&MODE' EQ 'CR').J-03850000
               LGC                                                  4-0 03900000
         AIF   ('&CG1' EQ '3525').JLG2                              4-0 03950000
         AIF   ('&MODE' EQ 'O' OR '&MODE' EQ 'EO' OR '&MODE' EQ 'CO').J-04000000
               LGC                                                  4-0 04050000
.JLG2    MNOTE 0,'IMPROPER MODE VALUE. EBCDIC ASSUMED.'             4-0 04100000
         AGO   .JLGE                                                4-0 04150000
.JLG2A   MNOTE 0,'MODE VALUE INVALID FOR &CG1 . EBCDIC ASSUMED'      JJ 04200000
         AGO   .JLGE                                                 JJ 04250000
.JLGC    ANOP                                                       4-0 04300000
&FMOD    SETC  '&MODE'(&N,1)                                        4-0 04350000
         AIF   (&N EQ 1).JLGE                                       4-0 04400000
.JLGD    ANOP                                                       4-0 04450000
&DMOD    SETC  '&MODE'(1,1)                                         4-0 04500000
.JLGE    AIF   (T'&FUNC EQ 'O').JLG5                                4-0 04550000
         AIF   ('&CG1' EQ '3505').JLG5                              4-0 04600000
         AIF   ('&CG1' NE '2560').JJ1                                JJ 04650000
&FUNCT   SETC  'FGHIJ'                                               JJ 04700000
         AGO   .JJ2                                                  JJ 04750000
.JJ1     ANOP                                                        JJ 04800000
         AIF   ('&CG1' NE '5425').JJ1A                         @DL2994J 04850000
&FUNCT   SETC  'KLMNO'                                               JJ 04900000
         AGO   .JJ2                                                  JJ 04950000
.JJ1A    ANOP                                                        JJ 05000000
&FUNCT   SETC  'ABCDE'                                              4-0 05050000
.JJ2     ANOP                                                        JJ 05100000
&ASF     SETA  1                                                    4-0 05150000
         AIF   ('&FUNC' EQ 'RP').JLGP                               4-0 05200000
&ASF     SETA  5                                                    4-0 05250000
         AIF   ('&FUNC' EQ 'RPW').JLGP                              4-0 05300000
&ASF     SETA  0                                                    4-0 05350000
         AIF   ('&TYPEFLE' EQ 'OUTPUT').JLGH                        4-0 05400000
         AIF   ('&FUNC' EQ 'R').JLG5                                4-0 05450000
&ASF     SETA  2                                                    4-0 05500000
         AIF   ('&FUNC' EQ 'RW').JLGP                               4-0 05550000
.JLG3    MNOTE 9,'IMPROPER FUNC VALUE.  MACRO NOT GENERATED.'       4-0 05600000
         MEXIT                                                      4-0 05650000
.JLGH    AIF   ('&FUNC' EQ 'P').JLG5                                4-0 05700000
&ASF     SETA  3                                                    4-0 05750000
         AIF   ('&FUNC' EQ 'PW').JLGP                               4-0 05800000
&ASF     SETA  4                                                    4-0 05850000
&NCH     SETA  1                                               @DA08364 05900000
         AIF   ('&FUNC' EQ 'I').JLGP                                4-0 05950000
         AGO   .JLG3                                                4-0 06000000
.JLGP    ANOP                                                       4-0 06050000
&FUN     SETC  '&FUNCT'(&ASF,1)                                     4-0 06100000
         AIF   (&ASF EQ 4).JLG6A                                    4-0 06150000
         AIF   (T'&ASOCFLE NE 'O').JLG5                             4-0 06200000
         MNOTE 9,'MISSING ASOCFLE PARAMETER. MACRO TERMINATED.'     4-0 06250000
         MEXIT                                                      4-0 06300000
.OMR001  AIF   ('&CG1' NE '3881').JLG5                         @DL28701 06350000
         AIF   (T'&OUBLKSZ EQ 'O').JLG5                        @DL28701 06400000
&OBLK881 SETB  1                                               @DL28701 06450000
         MNOTE 0,'OUBLKSZ PARAMETER INVALID. IGNORED.'         @DL28701 06500000
.JLG5    AIF   ('&TYPEFLE' EQ 'OUTPUT').OMR003                 @DL28701 06550000
         AGO   .OMR004                                         @DL28701 06600000
.OMR003  AIF   ('&CG1' NE '3881').D1                           @DL28701 06650000
.OMR004  AIF   (T'&CTLCHR EQ 'O').D3                           @DL28701 06700000
          MNOTE 0,'CTLCHR INVALID PARAMETER. IGNORED'                   06750000
.D3       AIF   (T'&RECFORM EQ 'O' OR '&RECF' EQ 'FIXUNB').D4  @D14BDBF 06800000
          MNOTE 0,'IMPROPER RECFORM. ''FIXUNB'' ASSUMED'                06850000
&RECF     SETC  'FIXUNB'             ASSUME FIXUNB             @D14BDBF 06900000
.D4       AIF   (T'&RECSIZE EQ 'O').D5                                  06950000
          MNOTE 0,'RECSIZE INVALID PARAMETER. IGNORED'                  07000000
          AGO   .D5                                                     07050000
.JLG6A   AIF   ('&DMOD' EQ 'E').JLG6B                               4-0 07100000
         MNOTE 0,'MODE VALUE INVALID FOR FUNC=I. EBCDIC ASSUMED'     JJ 07150000
&DMOD    SETC  'E'                                                  4-0 07200000
.JLG6B   AIF   ('&RECF' EQ 'FIXUNB').D1                        @D14BDBF 07250000
         MNOTE 0,'RECFORM CONFLICTING WITH FUNC=I. FIXUNB ASSUMED'   JJ 07300000
&RECF     SETC  'FIXUNB'             ASSUME RECFORM=FIXUNB     @D14BDBF 07350000
.D1       AIF   (T'&EOFADDR EQ 'O').D5                                  07400000
          MNOTE 0,'EOFADDR INVALID FOR OUTPUT FILE. IGNORED'         JJ 07450000
.D5       ANOP                                                          07500000
         AIF   (T'&BLKSIZE EQ 'N').E00                                  07550000
         AIF   ('&CG1' EQ '3881').OMR011                       @DL28701 07600000
         AIF   ('&CG1' EQ '2596' OR '&CG1' EQ '5425').D5A      @DL2994J 07650000
         AIF   ('&DMOD' NE 'C').JLG7                                4-0 07700000
&BLKS    SETA  160                                                  4-0 07750000
         AGO   .JLG7AA                                              4-0 07800000
.JLG7    ANOP                                                       4-0 07850000
&BLKS    SETA  80                                                   4-0 07900000
         AGO   .JLG7AA                                              4-0 07950000
.D5A     ANOP                                                       4-0 08000000
&BLKS    SETA  96                                                   4-0 08050000
.JLG7AA  AIF   (T'&BLKSIZE EQ 'O').E2                               4-0 08100000
         AGO   .OMR009                                         @DL28701 08150000
.OMR011  ANOP                                                  @DL28701 08200000
&BLKS    SETA  900                                             @DL28701 08250000
.OMR009  MNOTE 0,'IMPROPER BLKSIZE.  SET TO &BLKS.'            @DL28701 08300000
         AGO   .E2                                                      08350000
.E00     ANOP                                                           08400000
&BLKS    SETA  &BLKSIZE                                                 08450000
         AIF   ('&CG1' EQ '3881').OMR013                       @DL28701 08500000
         AIF   (&ASF EQ 4).JLG7A                                    4-0 08550000
         AIF   ('&RECF' NE 'FIXUNB').E2                        @D14BDBF 08600000
.JLG7A   ANOP                                                       4-0 08650000
         AIF   ('&CTLCHR' NE '' AND '&TYPEFLE' EQ 'OUTPUT').Q1          08700000
         AIF   (&BLKS LE 80).E2                                         08750000
         AIF   ('&DMOD' EQ 'C').JLG8                                4-0 08800000
         AIF   ('&CG1' EQ '2596' OR '&CG1' EQ '5425').E01      @DL2994J 08850000
         AIF   (&BLKS LE 512).E2                               @D14BDBF 08900000
&BLKS    SETA  512                                             @D14BDBF 08950000
         AGO   .Q15                                            @D14BDBF 09000000
.JLG8    AIF   (&BLKS LE 160).E2                                    4-0 09050000
&BLKS    SETA  160                                                  4-0 09100000
         AGO   .Q15                                                 4-0 09150000
.E01     AIF   (&BLKS LE 96).E2                                     4-0 09200000
&BLKS    SETA  96                                                   4-0 09250000
         AGO   .Q15                                                 4-0 09300000
.Q1      AIF   ('&DMOD' NE 'C').JLG10                               4-0 09350000
         AIF   (&BLKS LE 161).E2                                    4-0 09400000
&BLKS    SETA  161                                                  4-0 09450000
         AGO   .Q15                                                 4-0 09500000
.JLG10   AIF   (&BLKS LE 81).E2                                     4-0 09550000
         AIF   ('&CG1' EQ '2596' OR '&CG1' EQ '5425').E02      @DL2994J 09600000
&BLKS    SETA  81                                                   4-0 09650000
         AGO   .Q15                                                 4-0 09700000
.OMR013  AIF   ('&BLKS' LE '900').E2                           @DL28701 09750000
&BLKS    SETA  900                                             @DL28701 09800000
         AGO   .Q15                                            @DL28701 09850000
.E02     AIF   (&BLKS LE 97).E2                                     4-0 09900000
&BLKS    SETA  97                                                   4-0 09950000
.Q15     MNOTE 0,'BLKSIZE GREATER THAN &BLKS . &BLKS ASSUMED'           10000000
.E2      AIF   (T'&IOAREA1 NE 'O').E025                                 10050000
         MNOTE 0,'NO IOAREA1 SPECIFIED, SET TO 0'                   3-8 10100000
&IOA1    SETC  '0'                                                  3-8 10150000
         AGO   .EG1                                                     10200000
.E025    ANOP                                                           10250000
&IOA1    SETC  '&IOAREA1'                                               10300000
.EG1      AIF   ('&CG1' NE '2501').REL                                  10350000
          AIF   ('&CONTROL' EQ '').UVW                                  10400000
          MNOTE 0,'CONTROL INVALID PARAMETER. IGNORED'                  10450000
.UVW      AIF   ('&CTLCHR' EQ '' OR '&TYPEFLE' NE 'OUTPUT').EC92        10500000
          MNOTE 0,'CTLCHR INVALID PARAMETER. IGNORED'                   10550000
          AGO  .EC92                                                    10600000
.REL      ANOP                                                          10650000
&CNTL    SETC  'C'                                                      10700000
         AIF   (T'&CONTROL EQ 'O').EC91                             4-0 10750000
         AIF   ('&TYPEFLE' EQ 'OUTPUT').JLG11                       4-0 10800000
         AIF   ('&CG1' EQ '3881').JLG11                        @DL28701 10850000
         AIF   (&ASF NE 1 AND &ASF NE 5).JLG11                      4-0 10900000
         MNOTE 0,'CNTRL IN READ/PUNCH OR READ/PUNCH/PRINT IS INVALID.  X10950000
               IGNORED.'                                            4-0 11000000
         AGO   .EC92                                                4-0 11050000
.JLG11   AIF   ('&CONTROL' EQ 'YES').EC93                           4-0 11100000
          MNOTE 0,'IMPROPER CONTROL. ''YES'' ASSUMED'                   11150000
.EC93    AIF   (T'&CTLCHR EQ 'O').EC9                                   11200000
         AIF   ('&TYPEFLE' NE 'OUTPUT').EC9                             11250000
          MNOTE 0,'BOTH CTLCHR AND CONTROL SPECIFIED.ONLY CONTROL ASSUM*11300000
               ED'                                                      11350000
         AGO   .EC9                                                     11400000
.EC91    AIF   ('&TYPEFLE' NE 'OUTPUT').EC92                            11450000
         AIF   ('&CG1' EQ '3881').EC92                         @DL28701 11500000
&CNTL    SETC  'A'                                                      11550000
         AIF   ('&CTLCHR' EQ  'ASA').EC9                                11600000
&CNTL    SETC  'Y'                                                      11650000
         AIF   ('&CTLCHR'  EQ 'YES').EC9                                11700000
         AIF   ('&CTLCHR'  EQ '').EC92                                  11750000
          MNOTE 0,'IMPROPER CTLCHR. ''YES'' ASSUMED'                    11800000
         AGO   .EC9                                                     11850000
.EC92    ANOP                                                           11900000
&CNTL    SETC  'Z'                                                      11950000
.EC9     ANOP                                                           12000000
&WKIO    SETC  'Z'                                                      12050000
         AIF   ('&TYPEFLE' EQ 'CMBND').EC95                             12100000
         AIF   (T'&IOAREA2 EQ 'O').OMR018                      @DL28701 12150000
         AIF   ('&CG1' EQ '3881').JLG12                        @DL28701 12200000
         AIF   (&ASF EQ 0).JLG12                                    4-0 12250000
         MNOTE 0,'TWO I/O AREA NOT ALLOWED WITH DEVICE ASSOCIATED FILE.X12300000
                 ONLY ONE I/O AREA ASSUMED.'                        4-0 12350000
         AIF   (T'&IOREG EQ 'O').JLG14                              4-0 12400000
         MNOTE 9,'IOREG ALSO SPECIFIED.MACRO GENERATION TERMINATED' 4-0 12450000
         MEXIT                                                      4-0 12500000
.JLG12   ANOP                                                       4-0 12550000
&IOA2    SETC  '&IOAREA2'                                           4-0 12600000
         AIF   (T'&CONTROL  EQ 'O' OR '&TYPEFLE' EQ 'OUTPUT').EC9A      12650000
.*                                                             @DA00011 12700000
          MNOTE 9,'BOTH CONTROL AND IOAREA2 SPECIFIED ON AN INPUT FILE *12750000
               MACRO GENERATION TERMINATED'                        3-10 12800000
         MEXIT                                                     3-10 12850000
.EC9A    ANOP                                                      3-10 12900000
&AL4      SETA  &AL4+4                                                  12950000
&WKIO    SETC  'I'                                                      13000000
         AGO   .OMR019                                         @DL28701 13050000
.OMR018  AIF   ('&CG1' NE '3881').JLG14                        @DL28701 13100000
&IOA2    SETC  '0'                                             @DL28701 13150000
.OMR019  AIF   (T'&WORKA EQ 'O').EC10                          @DL28701 13200000
         AIF   ('&CG1' NE '3881').OMR015                       @DL28701 13250000
         MNOTE 0,'WORKA PARAMETER INVALID. IGNORED.'           @DL28701 13300000
         AGO   .EC10                                           @DL28701 13350000
.OMR015  AIF   ('&WORKA' EQ 'YES').HARA1                       @DL28701 13400000
          MNOTE 0,'IMPROPER WORKA. ''YES'' ASSUMED'                     13450000
.HARA1    ANOP                                                          13500000
&WKIO    SETC  'B'                                                      13550000
         AGO   .EC10                                                    13600000
.JLG14   ANOP                                                       4-0 13650000
&IOA2    SETC  '0'                                                  4-0 13700000
.EC95    ANOP                                                       3-3 13750000
         AIF   (T'&WORKA EQ 'O').EC10                               3-3 13800000
          AIF   ('&WORKA' EQ 'YES').HARA2                               13850000
          MNOTE 0,'IMPROPER WORKA. ''YES'' ASSUMED'                     13900000
.HARA2    ANOP                                                          13950000
&WKIO    SETC  'W'                                                      14000000
.EC10    ANOP                                                           14050000
         AIF   ('&CG1' EQ '3881').EC105                        @DL28701 14100000
         AIF   ('&TYPEFLE' NE 'OUTPUT').EC105                           14150000
         AIF   ('&RECF' EQ 'FIXUNB').EG125                     @D14BDBF 14200000
         AIF   (&ASF EQ 4).EG125      IS FUNC='I'                   4-0 14250000
         AIF   ('&RECF' EQ 'VARUNB').EG125                     @D14BDBF 14300000
         AIF   ('&RECF' EQ 'UNDEF').EG125                      @D14BDBF 14350000
         MNOTE 0,'IMPROPER RECFORM. ''FIXUNB'' ASSUMED.'       @DL28701 14400000
         AGO   .EG125                                                   14450000
.EC105   AIF   (T'&EOFADDR NE 'O').EG125                       @D14BDBF 14500000
          MNOTE 0,'NO EOFADDR SPECIFIED. SET TO *'                      14550000
.EG125   AIF   ('&TYPEFLE' EQ 'CMBND').EC1                              14600000
&IOG      SETC  '2'                                                     14650000
          AIF   (T'&IOAREA2 NE 'O').A1                              4-0 14700000
          AIF   (T'&IOREG EQ 'O').A10                                   14750000
          MNOTE 0,'IOREG STATED FOR FILE WITH ONLY ONE IOAREA. IGNORED' 14800000
          AGO   .A3                                                     14850000
.A1       AIF   (T'&IOREG NE 'O').A2                                    14900000
          AIF   (T'&WORKA NE 'O').A10                                   14950000
         AIF   (K'&FUNC GT 1 OR '&FUNC' EQ 'I').A10                  JJ 15000000
          AIF   ('&CG1' EQ '3881').OMR014                      @DF00133 15050000
          MNOTE 0,'NEITHER IOREG NOR WORKA STATED FOR A 2 IOAREAS FILE.*15100000
                 WORKA ASSUMED'                                         15150000
         AGO   .OMR016                                         @DF00133 15200000
.OMR014  ANOP                                                  @DF00133 15250000
         MNOTE 9,'IOREG NOT SPECIFIED FOR 3881 FILE WITH 2 IOAREAS. MACX15300000
               RO NOT GENERATED.'                              @DM01566 15350000
         MEXIT                                                 @DF00133 15400000
.OMR016  ANOP                                                  @DF00133 15450000
&WKIO    SETC  'B'                                                      15500000
          AGO   .A10                                                    15550000
.A2      AIF   ('&CG1' EQ '3881').A3                           @DL28701 15600000
         AIF   (T'&WORKA EQ 'O').A3                            @DL28701 15650000
         AIF   ('&CG1' NE '2560').A222                               JJ 15700000
         MNOTE 0,'BOTH IOREG AND WORKA SPECIFIED. IOREG IGNORED'     JJ 15750000
&WKIO    SETC  'B'                                                   JJ 15800000
         AGO   .A10                                                  JJ 15850000
.A222     MNOTE 0,'BOTH IOREG AND WORKA STATED. BOTH CONSIDERED'     JJ 15900000
.A3      AIF   ('&WKIO' NE 'I').A10                                  JJ 15950000
         AIF   (T'&IOREG(1) EQ 'N').A4                               JJ 16000000
          AGO   .A5                                                     16050000
.A4      AIF   ('&IOREG(1)' GE '2' AND '&IOREG(1)' LT '13').A6 @DA14034 16100000
.A5       MNOTE 0,'IMPROPER IOREG. SET TO REG 2'                        16150000
          AGO   .A10                                                    16200000
.A6       ANOP                                                          16250000
&IOG      SETC  '&IOREG(1)'                                             16300000
.A10      ANOP                                                          16350000
         AIF   ('&CG1' EQ '3881').F1                           @DL28701 16400000
          AIF   ('&TYPEFLE' NE 'OUTPUT').F1                             16450000
          AIF   ('&CRDERR' EQ '').F10                          @DA02230 16500000
          AIF   (T'&CRDERR EQ 'O').F10                                  16550000
&AL1     SETC  '5'                                                  4-0 16600000
         AIF   ('&CG1' EQ '2520').F2                                    16650000
&AL1     SETC  '4'                                                  4-0 16700000
          AIF   ('&CG1' EQ '2540').F2                                   16750000
          AGO   .F9                                                     16800000
.F2       AIF   ('&CRDERR' EQ 'RETRY').R30                              16850000
          MNOTE 0,'IMPROPER CRDERR. ''RETRY'' ASSUMED'                  16900000
          AGO   .R30                                                    16950000
          AIF   ('&CRDERR' EQ '').F10                          @DA02230 17000000
.F1       AIF   (T'&CRDERR EQ 'O').F10                                  17050000
.F9       MNOTE 0,'CRDERR INVALID PARAMETER. IGNORED'                   17100000
.F10      ANOP                                                          17150000
&AL1     SETC  '&FUN'                                               4-0 17200000
         AIF   ('&CG1' NE '2560' AND '&CG1' NE '5425').JJ7     @DL2994J 17250000
         AIF   ('&CG1' NE '2560').F10A                               JJ 17300000
&SWS     SETA  128+&SWS                                              JJ 17350000
         AGO   .F10B                                                 JJ 17400000
.F10A    AIF   ('&CG1' NE '5425').F10B                         @DL2994J 17450000
&SWS     SETA  64+&SWS                                               JJ 17500000
.F10B    ANOP                                                        JJ 17550000
&STACKER SETA  16                                                    JJ 17600000
&EOFL    SETA  2                                                     JJ 17650000
         AIF   ('&DMOD'  NE 'C').JJ3                                 JJ 17700000
&COLBIN  SETA  32                                                    JJ 17750000
&EOFL    SETA  4                                                     JJ 17800000
.JJ3     AIF   (K'&DEVICE LT 5).JJ4A                                 JJ 17850000
         AIF   ('&DEVICE'(5,1) NE 'S').JJ4                           JJ 17900000
&STACKER SETA  80                                                    JJ 17950000
&HOPPER  SETA  128                                                   JJ 18000000
         AIF   ('&CG1' NE '5425').R30                          @DL2994J 18050000
&STACKER SETA  64                                              @DL2994J 18100000
         AGO   .R30                                                  JJ 18150000
.JJ4     AIF   ('&DEVICE'(5,1) EQ 'P').R30                           JJ 18200000
.JJ4A    MNOTE 0,'INVALID DEVICE PARAMETER. ''&CG1.P'' ASSUMED'      JJ 18250000
         AGO   .R30                                                  JJ 18300000
.JJ7     AIF   ('&CG1' EQ '3525').R30                                JJ 18350000
&AL1     SETC  '6'                                                  4-0 18400000
         AIF   ('&CG1' EQ '3505' AND '&TYPEFLE' EQ 'INPUT').R30     4-0 18450000
&AL1     SETC '3'                                                   4-0 18500000