         MACRO                                                          00050000
&NAME    DTFDR &DEVADDR=,&EOFADDR=,&IOAREA1=,&HEADER=,&FRNAME=,        X00100000
               &BLKSIZE=,&COREXIT=,&MODNAME=,&DEVICE=3886,             X00150000
               &SEPASMB=,&FRSIZE=,&RDONLY=,&SETDEV=,&EXITIND=           00200000
         LCLA   &AL1,&AL2,&AL3,&AL4,&TYP                                00250000
         LCLA   &BLKS,&FRSZ,&BLK                                        00300000
         LCLC   &CL1,&IOA1,&HDR,&EOFA,&COREX,&EXIND,&CL2                00350000
         LCLC   &SZ,&DV                                                 00400000
.* IBM DISK OPERATING SYSTEM                                   @DL28702 00450000
* 5745-SC-OCR  DTFDR    RELEASE 32                             @DL28702 00500000
*                                                                       00550000
* COPYRIGHT = THIS MACRO IS "RESTRICTED MATERIALS OF IBM"     *@D41TDKY 00600000
*             5686-007 (C) COPYRIGHT IBM CORP. 1974, 1988     *@D41TDKY 00650000
*             ALL RIGHTS RESERVED                             *@D41TDKY 00700000
*             LICENSED MATERIALS-PROPERTY OF IBM              *@D41TDKY 00750000
.*            SEE COPYRIGHT INSTRUCTIONS, G120-2083           *@D41TDKY 00800000
*                                                                       00850000
&CL2      SETC  '&SYSNDX'(2,3)                                          00900000
&AL1     SETA   64                                                      00950000
         AIF   (K'&NAME LT 8).D0005                                     01000000
         MNOTE  9,'FILENAME EXCEEDS SEVEN CHAR LIMIT. GENERATION TERMIN*01050000
               ATED'                                                    01100000
         MEXIT                                                          01150000
.D0005   AIF   (T'&IOAREA1 NE 'O').D0010                                01200000
         MNOTE 0,'IOAREA1 NOT SPECIFIED. SET TO *'                      01250000
&IOA1    SETC  '*'                                                      01300000
         AGO   .D0020                                                   01350000
.D0010   ANOP                                                           01400000
&IOA1    SETC  '&IOAREA1'                                               01450000
.D0020   AIF   (T'&EOFADDR NE 'O').D0030                                01500000
         MNOTE 0,'EOFADDR NOT SPECIFIED. SET TO *'                      01550000
&EOFA    SETC  '*'                                                      01600000
         AGO   .D0040                                                   01650000
.D0030   ANOP                                                           01700000
&EOFA    SETC  '&EOFADDR'                                               01750000
.D0040   AIF   (T'&COREXIT NE 'O').D0050                                01800000
         MNOTE 0,'COREXIT NOT SPECIFIED. SET TO *'                      01850000
&COREX   SETC  '*'                                                      01900000
         AGO   .D0055                                                   01950000
.D0050   ANOP                                                           02000000
&COREX   SETC  '&COREXIT'                                               02050000
.D0055   AIF   (T'&EXITIND NE 'O').D0057                                02100000
         MNOTE 0,'EXITIND NOT SPECIFIED, SET TO *'                      02150000
&EXIND   SETC  '*'                                                      02200000
         AGO   .D0060                                                   02250000
.D0057   ANOP                                                           02300000
&EXIND   SETC  '&EXITIND'                                               02350000
.D0060   AIF   (T'&HEADER NE 'O').D0070                                 02400000
         MNOTE 0,'HEADER NOT SPECIFIED. SET TO *'                       02450000
&HDR     SETC  '*'                                                      02500000
         AGO   .D0080                                                   02550000
.D0070   ANOP                                                           02600000
&HDR     SETC  '&HEADER'                                                02650000
.D0080   ANOP                                                           02700000
&SZ      SETC  'Z'                                                      02750000
         AIF   (T'&SETDEV EQ 'O').D0130                                 02800000
         AIF   ('&SETDEV' EQ 'YES').D0110                               02850000
         MNOTE 0,'INVALID SETDEV SPECIFIED. ASSUME ''YES'''             02900000
.D0110   ANOP                                                           02950000
&AL4     SETA  &AL4+4                                                   03000000
&SZ      SETC  'S'                                                      03050000
.D0130   AIF   (T'&DEVADDR EQ 'O').D0140                                03100000
         AIF   (K'&DEVADDR NE 6).D0140                                  03150000
         AIF   ('&DEVADDR'(1,3) NE 'SYS').D0140                         03200000
&CL1     SETC  '&DEVADDR'(4,3)                                          03250000
         AIF   ('&CL1' LT '000' OR '&CL1' GT '244').D0140               03300000
         AIF   ('&CL1'(2,1) LT '0' OR '&CL1'(2,1) GT '9').D0140         03350000
         AIF   ('&CL1'(3,1) LT '0' OR '&CL1'(3,1) GT '9').D0140         03400000
&AL2     SETA  1                                                        03450000
&AL3     SETA  &CL1                                                     03500000
         AGO   .D0150                                                   03550000
.D0140   MNOTE 0,'INVALID OR MISSING DEVADDR. ''FFFF'' GENERATED'       03600000
&AL2     SETA  255                                                      03650000
&AL3     SETA  255                                                      03700000
.D0150   AIF   (T'&BLKSIZE EQ 'O').D0160                                03750000
         AIF   (T'&BLKSIZE NE 'N').D0160                                03800000
&BLKS    SETA  &BLKSIZE                                                 03850000
         AIF   (&BLKS GT 0 AND &BLKS LE 130).D0170                      03900000
.D0160   MNOTE 0,'INVALID OR MISSING BLKSIZE. ASSUME 130'               03950000
&BLKS    SETA  130                                                      04000000
.D0170   ANOP                                                           04050000
&BLK     SETA  &BLKS+20                                                 04100000
         AIF   (T'&DEVICE EQ 'O').D0180                                 04150000
          AIF   ('&DEVICE' EQ '3886').D0190                             04200000
.D0180   MNOTE 0,'INVALID DEVICE,ASSUME 3886'                           04250000
.D0190   ANOP                                                           04300000
&DV      SETC  '0'                                                      04350000
&AL1     SETA   &AL1+2                                                  04400000
&TYP     SETA   12                                                      04450000
         AIF   (T'&FRSIZE EQ 'O').D0200                                 04500000
         AIF   (T'&FRSIZE NE 'N').D0200                                 04550000
&FRSZ    SETA  &FRSIZE                                                  04600000
         AIF   (&FRSZ GE 32).D0210                                      04650000
.D0200   MNOTE 0,'INVALID OR MISSING FRSIZE. ASSUME 236'                04700000
&FRSZ    SETA  236                                                      04750000
.D0210   AIF   (T'&FRNAME NE 'O').D0220                                 04800000
         MNOTE 9,'NO FRNAME SPECIFIED. GENERATION TERMINATED'           04850000
         MEXIT                                                          04900000
.D0220   AIF   (T'&SEPASMB EQ 'O').D0237                                04950000
         AIF   ('&SEPASMB' EQ 'YES').D0230                              05000000
         MNOTE 0,'INVALID SEPASMB. ASSUME ''YES'''                      05050000
.D0230   AIF   (T'&NAME NE 'O').D0250                                   05100000
         AGO   .D0235                                                   05150000
.D0237   AIF   (T'&NAME NE 'O').D0260                                   05200000
.D0235   MNOTE 9,'NO FILENAME SPECIFIED.GENERATION TERMINATED' @DM11365 05250000
         MEXIT                                                          05300000
.D0250   PUNCH '    CATALR &NAME,5.0'                                   05350000
&NAME.C  CSECT                                                          05400000
         ENTRY &NAME                                                    05450000
.D0260   DC    0D'0'                                                    05500000
&NAME    DC    X'000080000000' RESID CNT, TRANS INFO, CSW STATUS BYTE   05550000
         DC    AL1(&AL2)       SYM                                      05600000
         DC    AL1(&AL3)          UNIT ADDRESS                          05650000
         DC    X'00'           RESERVED FOR LIOCS                       05700000
         DC    AL3(IJMFC&CL2)  ADDR OF CCW ASSOC WITH THIS CCB          05750000
         DC    X'00'           RESERVED FOR PIOCS                       05800000
         DC    AL3(*)          CCW ADDR IN CSW                          05850000
         DC    X'00'                                                    05900000
         AIF   (T'&MODNAME EQ 'O').D0280                                05950000
         DC    VL3(&MODNAME)   ADDRESS OF LOGIC MODULE                  06000000
         AGO   .D0310                                                   06050000
.D0280   AIF   (T'&RDONLY EQ 'O').D0300                                 06100000
         AIF   ('&RDONLY' EQ 'YES').D0290                               06150000
         MNOTE 0,'INVALID RDONLY. ASSUME ''YES'''                       06200000
.D0290   DC    VL3(IJMZ&SZ.RD&DV)   ADDRESS OF LOGIC MODULE             06250000
         AGO   .D0310                                                   06300000
.D0300   DC    VL3(IJMZ&SZ.ZD&DV)   ADDRESS OF LOGIC MODULE             06350000
.D0310   DC    AL1(&TYP)       DTF TYPE                                 06400000
         DC    AL1(&AL1)       PIOCS SWITCHES                           06450000
         DC    X'00'           NOT USED                                 06500000
         DC    AL1(&AL4)       LIOCS SWITCHES                           06550000
         DC    CL8'&FRNAME'    INIT FORMAT RECORD NAME                  06600000
         DC    CL8' '          CURRENT FORMAT RECORD NAME               06650000
         DC    X'00000000'     NOT USED                                 06700000
         DC    A(IJMFR&CL2)    ADDR OF START OF FR AREA                 06750000
         DC    A(IJMFR&CL2+&FRSZ-4)    ADDR OF END OF FR AREA           06800000
         DC    A(&EOFA)        EOF ADDRESS                              06850000
         CCW   X'73',0,X'60',2           SCAN COMMAND                   06900000
         CCW   X'02',IJMDR&CL2,X'20',&BLK      READ CMND                06950000
         CCW   X'63',0,X'00',1           CNTRL CMND (ESD, PMK, LMK)     07000000
IJMFC&CL2 CCW  X'53',0,X'00',18          LOAD FORMAT CMND               07050000
         DC    A(&COREX)       CORRECTION EXIT ADDRESS                  07100000
         DC    A(&IOA1)        IOAREA1 ADDRESS                          07150000
         DC    A(&HDR)         HEADER ADDRESS                           07200000
         DC    A(&EXIND)       EXIT INDICATOR ADDRESS                   07250000
IJMDR&CL2 DC    CL&BLK' '      DATA RECORD AREA                         07300000
IJMFR&CL2 EQU   *                                                       07350000
.D0350   AIF   (&FRSZ LT 256).D0370                                     07400000
         DC    CL256' '        FORMAT RECORD AREA                       07450000
&FRSZ    SETA  &FRSZ-256                                                07500000
         AGO   .D0350                                                   07550000
.D0370   AIF   (&FRSZ EQ 0).D0390                                       07600000
         DC    CL&FRSZ' '      FORMAT RECORD AREA                       07650000
.D0390   ANOP                                                           07700000
IJMSA&CL2 DC    CL19' '                                        @DA00762 07750000
         MEND                                                           07800000
