         MACRO                                                          00050000
&NAME    DTFDA &ERRBYTE=,&IOAREA1=,&KEYARG=,&KEYLEN=,&IDLOC=,&LABADDR=,X00100000
               &READID=,&READKEY=,&RECFORM=FIXUNB,&RECSIZE=,&SEEKADR=,&X00150000
               SRCHM=,&TYPEFLE=,&VERIFY=,&WRITEID=,&WRITEKY=,&XTNTXIT=,X00200000
               &CONTROL=,&SEPASMB=,&AFTER=,&BLKSIZE=,&MODNAME=,&RDONLY=X00250000
               ,&DSKXTNT=,&DEVADDR=,&DEVICE=,&RELTYPE=,&TRLBL=,&HOLD=,&000300000
               ERREXT=,&FEOVD=                                      3-6 00350000
         GBLC  &SYSIND,&SYSIN1(4)                                   3-9 00400000
         LCLB  &B(23)                                               3-9 00450000
         LCLA  &PTR                                                 3-9 00500000
         LCLC  &A,&B2,&C,&D,&E,&TEST                                3-9 00550000
         LCLA  &AL1,&AL2,&AL3,&AL4,&AL5,&AL6,&AL7,&AL8,&AL9,&ALA,&AL10,*00600000
               &AL11,&AL12,&AL13,&AL14,&AL15,&AL16,&AL17,&AL18      4-0 00650000
         LCLA  &AL19                                                4-0 00700000
         LCLC  &IJINAME,&FILEN,&CL1,&CL2,&XTBL,&DVADR               4-0 00750000
.*  IBM DISK OPERATING SYSTEM                                           00800000
* DIRECT ACCESS METHOD - 5686-007-02-C440                      @U31TUJS 00850000
.* COPYRIGHT = 5686-007 (C) COPYRIGHT IBM CORP. 1979,1989      @U31TUJS 00900000
.*             LICENSED MATERIAL - PROGRAM PROPERTY OF IBM              00950000
.*             REFER TO COPYRIGHT INSTRUCTIONS                          01000000
.*             FORM NUMBER G120-2083                           @D36KE97 01050000
.*                                                                      01100000
.*THIS FIRST PART WILL CHECK THE ENTRY CARD **                      3-2 01150000
&ALA     SETA  0                                                    3-2 01200000
&XTBL    SETC  '&NAME'                                              3-2 01250000
         AIF   (T'&DEVADDR EQ 'O').DVSET                            3-2 01300000
         AIF   (K'&DEVADDR NE 6 OR '&DEVADDR'(1,3) NE 'SYS').DVMSG      01350000
&DVADR   SETC  '&DEVADDR'(4,3)                                          01400000
         AIF   ('&DVADR' LT '000' OR '&DVADR' GT '254').DVMSG  @DA31417 01450000
&AL11    SETA  1                                                        01500000
&AL12    SETA  &DVADR                                                   01550000
         AGO   .CHK2                                                3-2 01600000
.DVMSG   MNOTE 0,'&DEVADDR IMPROPER DEVADDR, ''FFFF'' GENERATED'        01650000
.DVSET   ANOP                                                  @DA24623 01700000
&AL11    SETA  255                                             @DA24623 01750000
&AL12    SETA  255                                                  3-2 01800000
.CHK2    AIF   (T'&DSKXTNT EQ 'N' OR T'&DSKXTNT EQ 'O').CHK4        3-2 01850000
         MNOTE 7,'DSKXTNT INVALID - REASSEMBLE'                     3-2 01900000
&ALA     SETA  &ALA+7                                               3-2 01950000
         AGO   .CHK10                                               3-2 02000000
.CHK4    AIF   ('&DSKXTNT' LT '257').CHK10                          3-2 02050000
         MNOTE 0,'DSKXTNT GREATER THAN 256 - 256 ASSUMED'           3-2 02100000
&AL14    SETA  256                                                  3-2 02150000
.CHK10   AIF   ('&IOAREA1' NE '').CHK15                                 02200000
         MNOTE 0,'IOAREA NO SPEC. PATCH WHEN SAID SO'                   02250000
.CHK15   AIF   ('&BLKSIZE' NE '').CHK18                             4-0 02300000
         MNOTE 4,'BLKSIZE NOT SPECIFIED. PATCH MAXIMUM DATA LENGTH WHENX02350000
               SAID SO.'                                            3-4 02400000
&ALA     SETA  &ALA+4                                               3-2 02450000
.CHK18   ANOP                                                  @D34DEF4 02500000
         AIF   ('&DEVICE' EQ '2311').CHK21                     @D34DEF4 02550000
         AIF   ('&DEVICE' EQ '2321').CHK22                     @D34DEF4 02600000
         AIF   ('&DEVICE' EQ '2314').CHK23                     @D34DEF4 02650000
         AIF   ('&DEVICE' EQ '3330').CHK24                          4-0 02700000
         AIF   ('&DEVICE' EQ '3340').CHK25                     @D34DEF4 02750000
         AIF   ('&DEVICE' EQ '3350').CHK26                     @D34DEF4 02800000
.CHK21   ANOP                      DEVICE IS 2311                   4-0 02850000
&AL10    SETA  3625                     TRACK CAPACITY              4-0 02900000
&AL17    SETA  20                       TRACK CONSTANT              4-0 02950000
&AL18    SETA  61                       RIC CONSTANT                4-0 03000000
&AL19    SETA  0                 CAPACITY-MAX RECD LNGTH(I.E 0)@D36KE97 03050000
&CL2     SETC  '00'                     DEVICE TYPE INDICATION      4-0 03100000
         AGO   .CHK27                                               4-0 03150000
.CHK22   ANOP                      DEVICE IS 2321                   4-0 03200000
&AL10    SETA  2000                     TRACK CAPACITY              4-0 03250000
&AL17    SETA  16                       TRACK CONSTANT              4-0 03300000
&AL18    SETA  84                       RIC CONSTANT                4-0 03350000
&CL2     SETC  '02'                     DEVICE TYPE INDICATION      4-0 03400000
         AGO   .CHK27                                               4-0 03450000
.CHK23   ANOP                      DEVICE IS 2314                   4-0 03500000
&AL10    SETA  7294                     TRACK CAPACITY              4-0 03550000
&AL17    SETA  45                       TRACK CONSTANT              4-0 03600000
&AL18    SETA  101                      RIC CONSTANT                4-0 03650000
&CL2     SETC  '01'                     DEVICE TYPE INDICATION      4-0 03700000
         AGO   .CHK27                                               4-0 03750000
.CHK24   ANOP                      DEVICE IS 3330                   4-0 03800000
&CL2     SETC  '04'                     DEVICE TYPE INDICATION      4-0 03850000
&AL10    SETA  13165                    TRACK CAPACITY              4-0 03900000
&AL17    SETA  191                      TRACK CONSTANT              4-0 03950000
&AL18    SETA  135                      RIC CONSTANT                4-0 04000000
         AGO   .CHK27A                                         @DL2W725 04050000
.CHK25   ANOP                      DEVICE IS 3340              @D34DEF4 04100000
&CL2     SETC  '08'                     DEVICE TYPE INDICATION @DL2W725 04150000
&AL10    SETA  8535                     TRACK CAPACITY         @DL2W725 04200000
&AL17    SETA  242                      TRACK CONSTANT         @DL2W725 04250000
&AL18    SETA  167                      RIC CONSTANT           @DL2W725 04300000
         AGO   .CHK27A                                         @D34DEF4 04350000
.CHK26   ANOP                      DEVICE IS 3350              @D34DEF4 04400000
&CL2     SETC  '07'                     DEVICE TYPE INDICATION @D34DEF4 04450000
&AL10    SETA  19254                    TRACK CAPACITY         @D34DEF4 04500000
&AL17    SETA  267                      TRACK CONSTANT         @D34DEF4 04550000
&AL18    SETA  185                      RIC CONSTANT           @D34DEF4 04600000
         AGO   .CHK27A                                         @D34DEF4 04650000
.CHK27A  ANOP                                                  @DL2W725 04700000
&AL19    SETA  &AL18          CAPACITY MINUS MAX.RECORD LENGTH @DL2W725 04750000
.CHK27   ANOP                                                       4-0 04800000
&AL15    SETA  &AL10-&AL19         MAX. RECORD LENGTH               4-0 04850000
         AIF   ('&TYPEFLE' NE '').CHK30                             4-0 04900000
         MNOTE 0,'TYPEFLE NOT SPECIFIED, INPUT ASSUMED'                 04950000
         AGO   .CHK31                                                   05000000
.CHK30   AIF   ('&TYPEFLE' EQ 'OUTPUT' OR '&TYPEFLE' EQ 'INPUT').CHK31  05050000
         MNOTE 0,'INVALID TYPEFLE, INPUT ASSUMED'                       05100000
.CHK31   AIF   ('&SEEKADR' NE '').CHK32                                 05150000
         MNOTE 2,'SEEKADR NO SPEC. PATCH WHEN SAID SO'              3-2 05200000
&ALA     SETA  &ALA+2                                               3-2 05250000
.CHK32   AIF   ('&READID' EQ '').CHK33                                  05300000
&B(12)   SETB  1                                                        05350000
         AIF   ('&READID' EQ 'YES').CHK33                               05400000
         MNOTE 0,'IMPROPER READID**YES ASSUMED'                         05450000
.CHK33   AIF   ('&WRITEID' EQ '').CHK34                                 05500000
&B(11)   SETB  1                                                        05550000
         AIF   ('&WRITEID' EQ 'YES').CHK34                              05600000
         MNOTE 0,'IMPROPER WRITEID***YES ASSUMED'                       05650000
.CHK34   AIF   ('&READKEY' EQ '').CHK35                                 05700000
&B(13)   SETB  1                                                        05750000
         AIF   ('&READKEY' EQ 'YES').CHK35                              05800000
         MNOTE 0,'IMPROPER READKEY***YES ASSUMED'                       05850000
.CHK35   AIF   ('&WRITEKY' EQ '').CHK36                                 05900000
&B(14)   SETB  1                                                        05950000
         AIF   ('&WRITEKY' EQ 'YES').CHK36                              06000000
         MNOTE 0,'IMPROPER WRITEKY***YES ASSUMED'                       06050000
.CHK36   AIF   ('&AFTER' EQ '').CHK37                                   06100000
&B(10)   SETB  1                                                        06150000
&AL10    SETA  &AL10+8                                                  06200000
         AIF   ('&AFTER' EQ 'YES').CHK37                                06250000
         MNOTE 0,'IMPROPER AFTER*******YES ASSUMED'                     06300000
.CHK37   AIF   ('&KEYLEN' EQ '').CHK45                              4-0 06350000
         AIF   (T'&KEYLEN EQ 'N').CHK47                             4-0 06400000
         MNOTE 7,'KEYLEN IS NOT A NUMERIC VALUE REASSEMBLE'         4-0 06450000
&ALA     SETA  &ALA+7                                               4-0 06500000
.CHK45   ANOP                                                       4-0 06550000
&AL17    SETA  &AL19               DECREASE TRACK CONSTANT          4-0 06600000
         AGO   .CHK48                                               4-0 06650000
.CHK47   AIF   ('&KEYLEN' LT '256').CHK48                           4-0 06700000
         MNOTE 7,'IMPROPER KEYLEN REASSEMBLE'                       4-0 06750000
&ALA     SETA  &ALA+7                                               4-0 06800000
.CHK48   ANOP                                                       4-0 06850000
&AL10    SETA  &AL10-&AL17                                          4-0 06900000
         AIF   ('&RECFORM' EQ 'FIXUNB').CHK73                       4-0 06950000
         AIF   ('&RECFORM' EQ 'UNDEF').CHK60                            07000000
         AIF   ('&RECFORM' EQ 'VARUNB').CHK73                       3-6 07050000
         AIF   ('&RECFORM' EQ 'SPNUNB').CHK73                       3-6 07100000
         MNOTE 0,'RECFORM IMPROPER OR OMITTED  FIXUNB ASSUMED'          07150000
         AGO   .CHK73                                                   07200000
.CHK60   AIF   ('&RECSIZE' NE '').CHK63                                 07250000
         MNOTE 1,'NO RECSIZE SPEC. PATCH WHEN SAID SO'              3-2 07300000
&ALA     SETA  &ALA+1                                               3-2 07350000
         AGO   .CHK73                                                   07400000
.CHK63   AIF   (T'&RECSIZE EQ 'N').CHK65                                07450000
         MNOTE 1,'RECSIZE IS NOT A REGISTER NUMBER  PATCH LATER'    3-2 07500000
&ALA     SETA  &ALA+1                                               3-2 07550000
&AL9     SETA  99                                                       07600000
         AGO   .CHK73                                                   07650000
.CHK65   ANOP                                                           07700000
&CL1     SETC  '&RECSIZE'(1,1)                                          07750000
         AIF   ('&CL1' NE '(').NOPRN                                    07800000
&AL9     SETA  &RECSIZE(1)                                              07850000
         AGO   .PRN                                                     07900000
.NOPRN   ANOP                                                           07950000
&AL9     SETA  &RECSIZE                                                 08000000
.PRN     AIF   ('&AL9' GT '1' AND '&AL9' LT '14').CHK73                 08050000
         MNOTE 1,'IMPROPER RECSIZE, PATCH WHERE INDICATED'          3-2 08100000
&ALA     SETA  &ALA+1                                               3-2 08150000
&AL9     SETA  99                                                       08200000
.CHK73   AIF   (T'&BLKSIZE EQ 'O').CHK80                                08250000
         AIF   (T'&BLKSIZE EQ 'N' ).CHK75                           5-0 08300000
         MNOTE 0,'POSSIBLE ERROR, BLKSIZE IS NOT SELF-DEFINING '    3-8 08350000
         AGO   .CHK80                                                   08400000
.CHK75   ANOP                                                       3-2 08450000
&AL16    SETA  &BLKSIZE                                             3-2 08500000
.DEK76   AIF   ('&AL16' GT '32767').CHK79                           3-6 08550000
         AIF   ('&BLKSIZE' GT '1').CHK80                                08600000
.CHK79   MNOTE 7,'IMPROPER BLKSIZE **REASSEMBLE'                    3-4 08650000
&ALA     SETA  &ALA+7                                               3-4 08700000
.CHK80   AIF   ('&SRCHM' EQ 'YES' OR '&SRCHM' EQ '').CHK85              08750000
         MNOTE 0,'INVALID SRCHM, YES ASSUMED'                           08800000
.CHK85   AIF   ('&WRITEKY' EQ '' AND '&READKEY' EQ '').CHK100           08850000
         AIF   ('&KEYARG' NE '').CHK105                                 08900000
&B(21)   SETB  1                                                        08950000
         MNOTE 2,'NO KEYARG SPEC.  PATCH WHEN SAID SO'              3-2 09000000
&ALA     SETA  &ALA+2                                               3-2 09050000
         AGO   .CHK105                                                  09100000
.CHK100  AIF   ('&SRCHM' EQ '').CHK102                              3-9 09150000
         MNOTE 0,'SRCHM SPEC. AND NO WRITEKY OR READ KEY SPEC.'         09200000
.CHK102  AIF   ('&KEYARG' EQ '').CHK105                             3-9 09250000
         MNOTE 0,'KEYARG SPEC. AND NO WRITEKY OR READKEY SPEC.'     3-9 09300000
.CHK105  AIF   ('&READID' NE '').CHK110                                 09350000
         AIF   ('&WRITEID' NE '').CHK110                                09400000
         AIF   ('&READKEY' NE '').CHK110                                09450000
         AIF   ('&WRITEKY' NE '').CHK110                                09500000
         AIF   ('&IDLOC' EQ '').CHK110                                  09550000
         MNOTE 0,'IDLOC SPEC. NO ID OR KEY MACROS SPEC.'                09600000
.CHK110  AIF   ('&ERRBYTE' NE '').CHK115                                09650000
         MNOTE 2,'NO ERRBYTE SPEC. PATCH WHEN SAID SO'              3-2 09700000
&ALA     SETA  &ALA+2                                               3-2 09750000
.CHK115  AIF   ('&READKEY' NE '').CHK120                                09800000
         AIF   ('&WRITEKY' NE '').CHK120                                09850000
         AGO   .CHK125                                                  09900000
.CHK120  AIF   ('&KEYLEN' NE '').CHK125                                 09950000
         MNOTE 7,'NO KEYLEN SPEC. WITH MACROS USING IT'             3-2 10000000
&ALA     SETA  &ALA+7                                               3-2 10050000
.CHK125  AIF   (T'&VERIFY EQ 'O' OR '&VERIFY' EQ 'YES').CHK126          10100000
         MNOTE 0,'INVALID VERIFY, YES ASSUMED'                          10150000
.CHK126  AIF   (T'&RELTYPE EQ 'O').CHK127                           3-2 10200000
         AIF   ('&RELTYPE' EQ 'HEX' OR '&RELTYPE' EQ 'DEC').CHK128  3-2 10250000
         MNOTE 0,'INVALID RELTYPE PARAMETER. HEX ASSUMED.'          3-2 10300000
         AGO   .CHK128                                              3-2 10350000
.CHK127  ANOP                                                       3-6 10400000
         AIF   ('&RECFORM' EQ 'SPNUNB').CHK129                      3-6 10450000
         AIF   (T'&DSKXTNT EQ 'O').CHK129                           3-6 10500000
         MNOTE 0,'OMITTED RELTYPE PARAMETER, DSKXTNT SPECIFIED. HEX    X10550000
               ASSUMED FOR RELTYPE.'                                3-2 10600000
         AGO   .CHK129                                              3-2 10650000
.CHK128  AIF   (T'&DSKXTNT NE 'O').CHK129                           3-2 10700000
         MNOTE 7,'OMITTED DSKXTNT PARAMETER, RELTYPE SPECIFIED. REASSEM-10750000
               BLE.'                                                3-2 10800000
&ALA     SETA  &ALA+7                                               3-2 10850000
.CHK129  ANOP                                                       3-6 10900000
         AIF   ('&RECFORM' NE 'SPNUNB').SPN129                      3-6 10950000
         AIF   (T'&DSKXTNT NE 'O').SPN129                           3-6 11000000
         MNOTE 7,'SPNUNB SPECIFIED, DSKXTNT OMITTED. REASSEMBLE.'   3-6 11050000
&ALA     SETA  &ALA+7             SET COUNTER TO DELETE ASSEMBLY.   3-6 11100000
.SPN129  ANOP                                                       3-6 11150000
         AIF   ('&TRLBL' EQ '').CHK130                              3-6 11200000
&AL13    SETA  128                                                  3-2 11250000
         AIF   ('&TRLBL' EQ 'YES').CHK130                           3-2 11300000
         MNOTE 0,'TRLBL PARAMETER INVALID. YES ASSUMED.'            3-2 11350000
.CHK130  AIF   ('&HOLD' EQ '').CHK131                               3-2 11400000
&AL13    SETA  &AL13+16                                             3-2 11450000
         AIF   ('&HOLD' EQ 'YES').CHK131                            3-2 11500000
         MNOTE 0,'INVALID HOLD PARAMETER. YES ASSUMED.'             3-2 11550000
.CHK131  AIF   ('&FEOVD' EQ '' OR '&FEOVD' EQ 'YES').CHK131A        3-6 11600000
         MNOTE 0,'IMPROPER FEOVD SPEC., ''YES'' ASSUMED'            3-6 11650000
.CHK131A AIF   ('&RECFORM' NE 'SPNUNB').CHK131B                     3-6 11700000
&AL13    SETA  &AL13+2                                              3-6 11750000
.CHK131B ANOP                                                       3-6 11800000
         SPACE 3                                                        11850000
.* THIS PART SETS ON THE SWITCHES                                       11900000
&B(15)   SETB  (&B(11) OR &B(12))       READ ID OR WRITE ID         3-6 11950000
&B(16)   SETB  (&B(13) OR &B(14))       READ KEY OR WRITE KEY       3-6 12000000
&B(19)   SETB  (&B(15) AND &B(16))     ID AND KEY TOGETHER              12050000
&B(8)    SETB  ('&KEYLEN' NE '')                                        12100000
&B(7)    SETB  ('&RELTYPE' EQ 'DEC')                                3-2 12150000
&B(6)    SETB  ('&RECFORM' EQ 'UNDEF' OR '&RECFORM' EQ 'SPNUNB')    3-6 12200000
&B(5)    SETB  ('&IDLOC' NE '')                                         12250000
&B(4)    SETB  ('&AFTER' NE '')     AFTER                               12300000
&B(3)    SETB  ('&SRCHM' NE '')                                         12350000
&B(2)    SETB  ('&VERIFY' NE '')                               @D36KE97 12400000
&B(1)    SETB  ('&TYPEFLE' EQ 'OUTPUT')                                 12450000
&B(9)    SETB  ('&RECFORM' EQ 'UNDEF')                              3-6 12500000
&B(22)   SETB  ('&FEOVD' NE '')                                     3-6 12550000
&B(17)   SETB  ('&ERREXT' NE '')                                    3-9 12600000
&B(18)   SETB  ('&RECFORM' NE 'SPNUNB' AND '&DSKXTNT' NE '' OR         C12650000
                '&RECFORM' EQ 'SPNUNB' AND '&RELTYPE' NE '') RELTRK 3-9 12700000
&B(20)   SETB  ('&HOLD' NE '')                                      3-9 12750000
&B(23)   SETB  ('&RDONLY' NE '')                                    3-9 12800000
         AIF   (T'&BLKSIZE EQ 'O' OR T'&BLKSIZE NE 'N').CHK250      3-9 12850000
.* THIS PART GIVES KEYLENGTH,DATALENGTH FROM BLKSIZE.                   12900000
&AL3     SETA  &BLKSIZE                 EQ DL+KL(IF)&68CNT(IF AFTER)    12950000
&AL4     SETA  &BLKSIZE                 EQ DL+KL(IF)+CNT(IF AFTER)      13000000
         AIF   (NOT &B(10)).CHK225                                      13050000
&AL1     SETA  &AL1+8                                                   13100000
&AL3     SETA  &BLKSIZE-8               EQ DL+KL(IF) IN ANY CASE        13150000
.CHK225  AIF   ('&KEYLEN' EQ '').CHK230                                 13200000
&AL6     SETA  &KEYLEN                                                  13250000
         AIF   (NOT &B(15) AND NOT &B(10)).CHK231                       13300000
&AL2     SETA  &AL1+&KEYLEN             AL2 EQ 8(IF)+KL                 13350000
&AL5     SETA  &AL4-&AL2                EQU DL IN ANY CASE              13400000
         AGO   .CHK235                                                  13450000
.CHK230  ANOP                                                           13500000
&AL6     SETA  0                                                        13550000
.CHK231  ANOP                                                           13600000
&AL2     SETA  &AL1                                                     13650000
&AL5     SETA  &AL4-&AL2                                                13700000
.CHK235  AIF   (&B(10)).CHK240         TEST IF FORMATTING MACRO         13750000
&AL8     SETA  0                                                        13800000
         AIF   (&B(19)).CHK245         TEST IF RD/WR ID AND RD/WR KEY   13850000
&AL7     SETA  0                                                        13900000
         AGO   .CHK250                                                  13950000
.CHK240  ANOP                                                           14000000
&AL8     SETA  8                                                        14050000
&AL7     SETA  &AL6+8                                                   14100000
         AGO   .CHK250                                                  14150000
.CHK245  ANOP                                                           14200000
&AL7     SETA  &AL6                                                     14250000
.CHK250  AIF   ('&ALA' LT '7').CHK251                               3-2 14300000
.TERMIN8 MNOTE 7,'MACRO GENERATION TERMINATED - CORRECT MNOTED PARAMETER14350000
               RS AND REASSEMBLE'                                   3-2 14400000
         MEXIT                                                      3-2 14450000
.CHK251  AIF   (T'&RDONLY EQ 'O').RS37                              3-3 14500000
         AIF   ('&RDONLY' EQ 'YES').RS37                            3-3 14550000
         MNOTE 0,'IMPROPER RDONLY. ''YES'' ASSUMED.'                3-3 14600000
.RS37    ANOP                                                       3-3 14650000
         AIF   (T'&NAME EQ 'O').CHK5                                3-3 14700000
         AIF   (K'&NAME LT 8).OK                                    3-3 14750000
         MNOTE 7,'FILE NAME EXCEEDS SEVEN CHAR LIMIT, MACRO GENERATION *14800000
               TERMINATED'                                          3-3 14850000
&ALA     SETA  &ALA+7                                               3-3 14900000
         AGO   .TERMIN8                                             3-3 14950000
.OK      ANOP                                                       3-3 15000000
&FILEN   SETC  '&NAME'                                              3-3 15050000
&IJINAME SETC  '&NAME'                                              3-3 15100000
         AGO   .TAB00                                               3-3 15150000
.CHK5    MNOTE 0,'NO FILENAME SPEC.  IJI&SYSNDX HAS BEEN GIVEN'     3-3 15200000
&IJINAME SETC  'IJI&SYSNDX'                                         3-3 15250000
&XTBL    SETC  'IJI&SYSNDX'                                         3-3 15300000
&FILEN   SETC  'IJI&SYSNDX'                                         3-3 15350000
.TAB00   ANOP                                                       3-3 15400000
         AIF   ('&ERREXT' EQ 'YES').RS53                            3-3 15450000
         AIF   (T'&ERREXT EQ 'O').RS53                              3-3 15500000
         MNOTE 0,'IMPROPER ERREXT PARAMETER. ''YES'' ASSUMED.'      3-3 15550000
.RS53    ANOP                                                       3-3 15600000
         AIF   (T'&SEPASMB EQ 'O').CHK260                           3-3 15650000
         AIF   ('&SEPASMB' EQ 'YES').CHK252                         3-3 15700000
         MNOTE 0,'IMPROPER SEPASMB***YES ASSUMED'                   3-3 15750000
.CHK252  AIF   (T'&NAME NE 'O').CHK255                              3-3 15800000
         MNOTE 7,'NO FILENAME SPECIFIED***GENERATION TERMINATED'    3-3 15850000
&ALA     SETA  &ALA+7                                               3-3 15900000
         AGO   .TERMIN8                                             3-3 15950000
.CHK255  PUNCH ' CATALOG &NAME..OBJ REPLACE=YES'               @D14BDBF 16000000
&NAME.A  CSECT                                                     3-10 16050000
         ENTRY &NAME                                                3-3 16100000
.CHK260  ANOP                                                       3-3 16150000
***************************************                             3-3 16200000
*                                     *                             3-3 16250000
** DTF TABLE FOR DIRECT ACCESS METHOD**                             3-3 16300000
*                                     *                             3-3 16350000
***************************************                             3-3 16400000
         DC    0D'0'                                                3-3 16450000
&FILEN   DC    H'0'                    FIRST CCB BYTES                  16500000
         AIF   (T'&ERREXT EQ 'O').TAY111                            3-3 16550000
         DC    X'98'                                                3-3 16600000
         AGO   .TAY222                                              3-3 16650000
.TAY111  ANOP                                                       3-3 16700000
         DC    X'88'                                                3-3 16750000
.TAY222        ANOP                                                 3-3 16800000
         DC    3X'00'                                                   16850000
         DC    AL1(&AL11)              LOGICAL UNIT CLASS               16900000
         DC    AL1(&AL12)              LOGICAL UNIT NUMBER              16950000
         DC    AL4(&FILEN.B)           CCW ADDR IN CCB                  17000000
         DC    F'0'                                                     17050000
         DC    AL1(&AL13)                                           3-2 17100000
         DC    XL3'00'                 DAMOD ADDRESS           @D36KE97 17150000
         DC    X'22'                   FILE TYPE               @D36KE97 17200000
    DC   B'&B(1)&B(2)&B(3)&B(4)&B(5)&B(9)&B(7).0' OPTION SWITCHES   3-6 17250000
         DC    CL7'&IJINAME'           FILENAME                         17300000
         DC    XL1'&CL2'               DEVICE TYPE INDICATION       4-0 17350000
         DC    X'FFFF'                                              4-0 17400000
         DC    X'0'                    RPS INDICATORS          @DL30SMG 17450000
         AIF   ('&LABADDR' NE '').TAB05                                 17500000
         AIF   ('&TRLBL' EQ '').TAB06                               3-2 17550000
         MNOTE 0,'TRLBL PARAMETER SPECIFIED, LABADDR OMITTED. PATCH FOL-17600000
               LOWING WITH LABEL ROUTINE EXIT ADDRESS.'             3-2 17650000
.TAB06   DC    3X'0'                   LABEL ROUTINE EXIT ADDR @DL30SMG 17700000
         AGO   .TAB10                                                   17750000
.TAB05   DC    AL3(&LABADDR)           LABEL ROUTINE EXIT ADDR @DL30SMG 17800000
.TAB10   AIF   ('&XTNTXIT' NE '').TAB12                                 17850000
         DC    F'0'                    EXTENT ROUTINE EXIT ADDR         17900000
         AGO   .TAB13                                                   17950000
.TAB12   DC    A(&XTNTXIT)             EXTENT ROUTINE EXIT ADDR         18000000
.TAB13   AIF   ('&DSKXTNT' EQ '').TAB048                            3-6 18050000
         DC    YL1((&FILEN.P-&FILEN)/2) POINTER TO REL TRK AREA     3-2 18100000
            AGO      .TOB                                           3-2 18150000
.TAB048  DC    X'0'                                                 3-2 18200000
.TOB     AIF      (T'&ERRBYTE EQ 'O').TAB14                         3-2 18250000
         AIF   (T'&ERRBYTE EQ 'O').TAB14                                18300000
         AIF   ('&ERRBYTE'(1,1) GE '0' AND '&ERRBYTE'(1,1) LE '9').TABE 18350000
         DC    AL3(&ERRBYTE)           ERRBYTE ADDR                     18400000
         AGO   .TAB15                                                   18450000
.TABE    MNOTE 2,'ERRBYTE IS NOT A VALID NAME, PATCH WITH CORRECT ADDR' 18500000