         MACRO                                                          00050000
&NAME    DTFDU &EOFADDR=,&IOAREA1=,&RECSIZE=,&CMDCHN=1,&DEVADDR=,      X00100000
               &DEVICE=3540,&ERREXT=,&ERROPT=,&FEED=YES,&FILESEC=,     X00150000
               &IOAREA2=,&IOREG=,&MODNAME=,&RDONLY=,&SEPASMB=,         X00200000
               &TYPEFLE=INPUT,&VOLSEQ=,&WORKA=,&WRTPROT=,&VERIFY= D31UE 00250000
         LCLA  &AL1,&AL2,&AL3,&CLASS,&NUM,&IORE,&RECS,&CCHN,&AO         00300000
         LCLA  &TYP,&CNT,&CMD                                           00350000
         LCLB  &TERM,&IN                                                00400000
         LCLC  &IOA1,&EOFA,&DVADR,&ERRTN,&EE,&IO,&RZ,&IDX               00450000
&IDX     SETC  '&SYSNDX'(2,3)                                           00500000
&IO      SETC  'I'                                                      00550000
&EE      SETC  'Z'                                                      00600000
&RZ      SETC  'Z'                                                      00650000
&CMD     SETA  6                                                        00700000
&IN      SETB  1                                                        00750000
&AO      SETA  128                                                      00800000
&AL1     SETA  10                                                       00850000
.* IBM DISK OPERATING SYSTEM                                            00900000
         AGO   .ZZZ                                            @U31TUJS 00950000
*    THIS MACRO IS "RESTRICTED MATERIALS OF IBM"               @U31TUJS 01000000
*    5686-007 (C) COPYRIGHT IBM CORP. 1977,1989                @U31TUJS 01050000
*    ALL RIGHTS RESERVED                                       @U31TUJS 01100000
*    LICENSED MATERIALS - PROPERTY OF IBM                      @U31TUJS 01150000
*    SEE COPYRIGHT INSTRUCTIONS, G120-2083                     @U31TUJS 01200000
.ZZZ     ANOP                                                  @U31TUJS 01250000
* DISKETTE IOCS - DTFDU - 5686-007-02-C440                     @U31TUJS 01300000
         AIF   (K'&NAME GT 7).D0010                                     01350000
         AIF   (T'&NAME NE 'O').D0020                                   01400000
.D0010   MNOTE 9,'INVALID OR MISSING FILENAME. GENERATION TERMINATED'   01450000
&TERM    SETB  1                                                        01500000
.D0020   AIF   (T'&IOAREA1 NE 'O').D0030                                01550000
         MNOTE 9,'IOAREA1 NOT SPECIFIED. GENERATION TERMINATED'         01600000
&TERM    SETB  1                                                        01650000
.D0030   ANOP                                                           01700000
&IOA1    SETC  '&IOAREA1'                                               01750000
         AIF   ('&TYPEFLE' NE 'OUTPUT').D0035                           01800000
         AIF   (T'&EOFADDR EQ 'O').D0045                                01850000
         MNOTE 0,'EOFADDR INVALID FOR OUTPUT FILE. IGNORED'             01900000
         AGO   .D0045                                                   01950000
.D0035   AIF   (T'&EOFADDR NE 'O').D0040                                02000000
         MNOTE 9,'EOFADDR NOT SPECIFIED. GENERATION TERMINATED'         02050000
&TERM    SETB 1                                                         02100000
.D0040   ANOP                                                           02150000
&EOFA    SETC  '&EOFADDR'                                               02200000
.D0045   AIF   (T'&RECSIZE NE 'O').D0050                                02250000
         MNOTE 9,'RECSIZE NOT SPECIFIED. GENERATION TERMINATED'         02300000
&TERM    SETB  1                                                        02350000
         AGO   .D0070                                                   02400000
.D0050   AIF   (T'&RECSIZE NE 'N').D0060                                02450000
&RECS    SETA  &RECSIZE                                                 02500000
         AIF   (&RECS GT 0 AND &RECS LE 128).D0070                      02550000
.D0060   MNOTE 4,'RECSIZE INVALID. ASSUME 128'                          02600000
&RECS    SETA  128                                                      02650000
.D0070   AIF   ('&DEVICE' EQ '3540').D0080                              02700000
         MNOTE 0,'INVALID DEVICE. ASSUME 3540'                          02750000
.D0080   ANOP                                                           02800000
&TYP     SETA  26                                                       02850000
         AIF   (T'&CMDCHN NE 'N').D0090                                 02900000
&CCHN    SETA  &CMDCHN                                                  02950000
         AIF   (&CCHN EQ 1 OR &CCHN EQ 2 OR &CCHN EQ 13 OR &CCHN EQ 26)*03000000
               .D0100                                                   03050000
.D0090   MNOTE 0,'CMDCHN INVALID. ASSUME 1'                             03100000
&CCHN    SETA  1                                                        03150000
         AGO   .D0110                                                   03200000
.D0100   AIF   (&CCHN EQ 1).D0110                                       03250000
&AL1     SETA  &AL1+128                                                 03300000
.D0110   AIF   (T'&DEVADDR NE 'O').D0120                                03350000
         MNOTE 0,'DEVADDR OMITTED. ''FFFF'' GENERATED'                  03400000
         AGO   .D0150                                                   03450000
.D0120   AIF   (K'&DEVADDR NE 6 OR '&DEVADDR'(1,3) NE 'SYS').D0140      03500000
&DVADR   SETC  '&DEVADDR'(4,3)                                          03550000
         AIF   ('&DVADR' LT '000' OR '&DVADR' GT '254').D0130  @DA31417 03600000
         AIF   ('&DVADR'(2,1) LT '0' OR '&DVADR'(2,1) GT '9').D0140     03650000
         AIF   ('&DVADR'(3,1) LT '0' OR '&DVADR'(3,1) GT '9').D0140     03700000
&CLASS   SETA  1                                                        03750000
&NUM     SETA  &DVADR                                                   03800000
         AGO   .D0160                                                   03850000
.D0130   AIF   ('&DVADR' EQ 'RDRIPTPCHLST'(3*&NUM+1,3)).D0160           03900000
&NUM     SETA  &NUM+1                                                   03950000
         AIF   (&NUM LE 3).D0130                                        04000000
.D0140   MNOTE 0,'&DEVADDR INVALID DEVADDR. ''FFFF'' GENERATED'         04050000
.D0150   ANOP                                                           04100000
&CLASS   SETA  255                                                      04150000
&NUM     SETA  255                                                      04200000
.D0160   AIF   (T'&IOREG EQ 'O').D0200                                  04250000
         AIF   (T'&WORKA EQ 'O').D0170                                  04300000
         MNOTE 0,'IOREG INVALID WITH WORKA. IOREG IGNORED'              04350000
         AGO   .D0200                                                   04400000
.D0170   ANOP                                                           04450000
&IORE    SETA  2                                                        04500000
         AIF   ('&IOREG'(1,1) EQ '(' AND '&IOREG'(K'&IOREG,1) EQ ')').D*04550000
               0180                                                     04600000
         MNOTE 0,'IOREG NOT WITHIN PARENTHESES'                         04650000
.D0180   AIF   (('&IOREG(1)' GT '1' AND '&IOREG(1)' LE '9') OR         *04700000
               ('&IOREG(1)' GE '10' AND '&IOREG(1)' LT '13')).D0190     04750000
         MNOTE 0,'IOREG NOT REGISTER 2-12. SET TO REGISTER 2'           04800000
         AGO   .D0230                                                   04850000
.D0190   ANOP                                                           04900000
&IORE    SETA  &IOREG(1)                                                04950000
         AGO   .D0230                                                   05000000
.D0200   AIF   (T'&WORKA NE 'O').D0210                                  05050000
         AIF   (&CCHN EQ 1 AND T'&IOAREA2 EQ 'O').D0230                 05100000
         MNOTE 0,'NO WORKA OR IOREG SPECIFIED FOR CHAINED OR DUAL IOARE*05150000
               A FILE. IOREG     SET TO REGISTER 2'                     05200000
&IORE    SETA  2                                                        05250000
         AGO   .D0230                                                   05300000
.D0210   AIF   ('&WORKA' EQ 'YES').D0220                                05350000
         MNOTE 0,'INVALID WORKA. ''YES'' ASSUMED'                       05400000
.D0220   ANOP                                                           05450000
&AL1     SETA  &AL1+16                                                  05500000
.D0230   AIF   ('&TYPEFLE' EQ 'INPUT').D0260                            05550000
.D0240   AIF   ('&TYPEFLE' NE 'OUTPUT').D0250                           05600000
&AO      SETA  64                                                       05650000
&CMD     SETA  5                                                        05700000
&AL1     SETA  &AL1-2                                                   05750000
&IN      SETB  0                                                        05800000
&IO      SETC  'O'                                                      05850000
         AGO   .D0260                                                   05900000
.D0250   MNOTE 0,'TYPEFLE INVALID. ASSUME INPUT'                        05950000
.D0260   AIF   (T'&ERROPT NE 'O').D0270                                 06000000
         AIF   (T'&ERREXT EQ 'O').D0320                                 06050000
         MNOTE 0,'ERROPT OMITTED. ERREXT IGNORED'                       06100000
         AGO   .D0320                                                   06150000
.D0270   AIF   ('&ERROPT' NE 'IGNORE').D0280                            06200000
&AL2     SETA  &AL2+64                                                  06250000
         AGO   .D0310                                                   06300000
.D0280   AIF   ('&ERROPT' NE 'SKIP').D0290                              06350000
&AL2     SETA  &AL2+32                                                  06400000
         AGO   .D0310                                                   06450000
.D0290   AIF   (T'&ERROPT EQ 'I' OR T'&ERROPT EQ 'M' OR T'&ERROPT EQ 'T*06500000
               ' OR T'&ERROPT EQ 'U').D0300                             06550000
         MNOTE *,'***** POSSIBLE ERROPT PARAMETER ERROR *****'          06600000
.D0300   ANOP                                                           06650000
&ERRTN   SETC  '&ERROPT'                                                06700000
&AL2     SETA  &AL2+128                                                 06750000
.D0310   AIF   (T'&ERREXT EQ 'O').D0320                                 06800000
         AIF   ('&ERREXT' EQ 'YES').D0320                               06850000
         MNOTE 0,'ERREXT INVALID. ASSUME YES'                           06900000
.D0320   AIF   (T'&IOAREA2 EQ 'O').D0330                                06950000
&AL2     SETA  &AL2+8                                                   07000000
.D0330   AIF   (T'&WRTPROT EQ 'O').D0350                                07050000
         AIF   (NOT &IN).D0340                                          07100000
         MNOTE 0,'WRTPROT INVALID FOR INPUT FILE. IGNORED'              07150000
         AGO   .D0350                                                   07200000
.D0340   ANOP                                                           07250000
&AL3     SETA  &AL3+128                                                 07300000
         AIF   ('&WRTPROT' EQ 'YES').D0350                              07350000
         MNOTE 0,'WRTPROT INVALID. ''YES'' ASSUMED'                     07400000
.D0350   AIF   ('&FEED' NE 'NO').D0360                                  07450000
&AL3     SETA  &AL3+64                                                  07500000
         AGO   .D0370                                                   07550000
.D0360   AIF   ('&FEED' EQ 'YES').D0370                                 07600000
         MNOTE 0,'FEED INVALID. ''YES'' ASSUMED'                        07650000
.D0370   AIF   (T'&VOLSEQ EQ 'O').D0390                                 07700000
         AIF   (&IN).D0380                                              07750000
         MNOTE 0,'VOLSEQ INVALID FOR OUTPUT FILE. IGNORED'              07800000
         AGO   .D0390                                                   07850000
.D0380   ANOP                                                           07900000
&AL3     SETA  &AL3+32                                                  07950000
         AIF   ('&VOLSEQ' EQ 'YES').D0390                               08000000
         MNOTE 0,'VOLSEQ INVALID. ''YES'' ASSUMED'                      08050000
.D0390   AIF   (T'&FILESEC EQ 'O').D0405                          D31UE 08100000
         AIF   (NOT &IN).D0400                                          08150000
         MNOTE 0,'FILESEC INVALID FOR INPUT FILE. IGNORED'              08200000
         AGO   .D0405                                             D31UE 08250000
.D0400   ANOP                                                           08300000
&AL3     SETA  &AL3+2                                                   08350000
         AIF   ('&FILESEC' EQ 'YES').D0405                     @DA00774 08400000
         MNOTE 0,'FILESEC INVALID. ''YES'' ASSUMED'                     08450000
.D0405   AIF  (T'&VERIFY EQ 'O').D0410                                  08500000
         AIF  ('&VERIFY' EQ 'YES').D0406                                08550000
         AIF  ('&VERIFY' EQ 'NO').D0410                         @DM5902 08600000
         MNOTE 0,'VERIFY INCORRECTLY SPECIFIED.NO ASSUMED.'       D31UE 08650000
         AGO   .D0410                                             D31UE 08700000
.D0406   ANOP                                                     D31UE 08750000
&AL3     SETA  &AL3+8                                                   08800000
.D0410   AIF   (T'&RDONLY EQ 'O' OR '&RDONLY' EQ 'YES').D0420           08850000
         MNOTE 0,'RDONLY INVALID. ''YES'' ASSUMED'                      08900000
.D0420   AIF   (T'&SEPASMB EQ 'O' OR '&SEPASMB' EQ 'YES').D0430         08950000
         MNOTE 0,'SEPASMB INVALID. ''YES'' ASSUMED'                     09000000
.D0430   AIF   (NOT &TERM).D0440                                        09050000
         MNOTE 9,'SEVERE ERRORS FOUND. MACRO GENERATION TERMINATED'     09100000
         MEXIT                                                          09150000
.D0440   AIF   (T'&SEPASMB EQ 'O').D0450                                09200000
         PUNCH '   CATALR &NAME,5.1 '                                   09250000
&NAME.C  CSECT                                                          09300000
         ENTRY &NAME                                                    09350000
.D0450   AIF   (T'&ERROPT EQ 'O').D0470                                 09400000
         DC    0D'0'                                                    09450000
         AIF   (T'&ERREXT EQ 'O').D0460                                 09500000
&NAME    DC    X'000098000000'     CCB                                  09550000
&EE      SETC  'C'                                                      09600000
         AGO   .D0480                                                   09650000
.D0460   ANOP                                                           09700000
&NAME    DC    X'000088000000'     CCB                         @DM05058 09750000
&EE      SETC  'E'                                                      09800000
         AGO   .D0480                                                   09850000
.D0470   DC    0D'0'                                                    09900000
&NAME    DC    X'000080000000'     CCB                                  09950000
.D0480   ANOP                                                           10000000
         DC    AL1(&CLASS)         LOGICAL UNIT CLASS                   10050000
         DC    AL1(&NUM)           LOGICAL UNIT NUMBER                  10100000
         DC    A(IJNC1&IDX)        CCB-CCW ADDRESS                      10150000
         DC    4X'00'              CCB-ST BYTE, CSW CCW ADDRESS         10200000
         DC    X'00'               SWITCHES                             10250000
         AIF   (T'&MODNAME EQ 'O').D0490                                10300000
         DC    VL3(&MODNAME)       LOGIC MODULE ADDRESS                 10350000
         AGO   .D0510                                                   10400000
.D0490   AIF   (T'&RDONLY EQ 'O').D0500                                 10450000
&RZ      SETC  'Y'                                                      10500000
.D0500   DC    VL3(IJND&IO&EE.Z&RZ)  LOGIC MODULE ADDRESS               10550000
.D0510   DC    AL1(&TYP)           DTF TYPE CODE                        10600000
         DC    AL1(&AL1)           OPEN/CLOSE INDICATORS                10650000
         DC    CL7'&NAME'          FILENAME                             10700000
         DC    X'06'               DEVICE TYPE CODE                     10750000
         DC    6X'00'              0CHR ADDR OF HDR1 LABEL IN VTOC      10800000
         DC    2X'00'              VOLUME SEQUENCE NUMBER               10850000
         DC    X'00'               OPEN COMMUNICATIONS BYTE             10900000
         DC    X'00'               SEQ. NO. OF CURRENT EXTENT           10950000
         DC    X'00'               SEQ. NO. OF LAST EXTENT OPENED       11000000
         DC    3X'00'              RESERVED                             11050000
         AIF   (T'&IOAREA2 EQ 'O').D0520                                11100000
         DC    A(&IOAREA2)         ADDRESS OF SECOND IOAREA             11150000
         AGO   .D0530                                                   11200000
.D0520   DC    A(&IOAREA1)         ADDRESS OF IOAREA                    11250000
.D0530   AIF   (&IN).D0533                                              11300000
         DC    A(IJNC1&IDX+8*(&CCHN+2)) ADDRS LAST CCW IN CHAIN         11350000
         AGO   .D0536                                                   11400000
.D0533   DC    A(IJNC1&IDX+8*(&CCHN+1)) ADDRS LAST CCW IN CHAIN         11450000
.D0536   DC    X'0001'             LOWER RECORD LIMIT                   11500000
         DC    4X'00'              END OF DATA SEEK ADDRESS             11550000
         DC    AL2(&CCHN)          I/O AREA REC.CNT.(SHORT CHAIN CNT.)  11600000
         DC    X'00FF0001'         0CHR SEEK ARGUMENT                   11650000
         AIF   (NOT &IN).D0540                                          11700000
         DC    A(&EOFADDR)         USERS EOF ROUTINE ADDRESS            11750000
         AGO   .D0550                                                   11800000
.D0540   DC    4X'00'              NOT USED                             11850000
.D0550   DC    X'0049001A'         SEEK ARGUMENT CONTROL FIELD          11900000
         DC    AL1(&CCHN)          COMMAND CHAINING FACTOR              11950000
         DC    X'00'               SWITCH BYTE 1                        12000000
         DC    AL2(&RECS*&CCHN-1)  IOAREA SIZE -1                       12050000
         DC    5X'FF'              0CHR0 SEEK ARGUMENT BUCKET           12100000
         DC    X'00'               SWITCH BYTE 2                        12150000
         DC    2X'00'              RESERVED                             12200000
         AIF   (&IORE NE 0).D0560                                       12250000
         NOP   0                   NOP INS                              12300000
         AGO   .D0570                                                   12350000
.D0560   L     &IORE,88(1)         LOAD USER'S IOREG                    12400000
.D0570   DC    A(&IOAREA1)         CURRENT I/O AREA ADDRESS             12450000
         DC    A(&RECS)            LOGICAL RECORD SIZE                  12500000
         DC    A(&IOAREA1+(&RECS*&CCHN)-1) END OF IOAREA ADDRESS -1     12550000
         DC    AL1(&AL2)           LOGICAL INDICATORS                   12600000
         AIF   ('&ERRTN' EQ '').D0580                                   12650000
         DC    AL3(&ERRTN)         USER'S ERROR ROUTINE ADDRESS         12700000
         AGO   .D0590                                                   12750000
.D0580   DC    3X'00'              NOT USED                             12800000
.D0590   ANOP                                                           12850000
         DC    AL1(&CCHN)          CCW COUNT                            12900000
         DC    AL1(&AO)            ALLOWED OPERATIONS                   12950000
         DC    X'00'               PHYSICAL SECTOR SIZE                 13000000
         DC    X'00'               RESERVED                             13050000
         DC    AL1(&AL3)           SWITCH BYTE 3                        13100000
         DC    3X'00'              RESERVED                             13150000
         CCW   23,*,0,1            FEED CCW                             13200000
         AIF   (&IN).D0593                                              13250000
IJNC1&IDX CCW   47,&NAME+104,X'60',4 DEFINE OPERATIONS CCW              13300000
         CCW   7,&NAME+60,X'60',4  SEEK CCW                             13350000
         AGO   .D0596                                                   13400000
.D0593   DC    8X'00'              NOT USED                             13450000
IJNC1&IDX CCW  7,&NAME+60,X'60',4  SEEK CCW                             13500000
.D0596   ANOP                                                           13550000
         CCW   8,*+8,0,0           TIC CCW                              13600000
.D0600   AIF   (&CNT EQ (&CCHN-1)).D0610                                13650000
         CCW   &CMD,&IOA1+(&CNT*&RECS),X'60',&RECS  READ/WRITE CCW      13700000
&CNT     SETA  &CNT+1                                                   13750000
         AGO   .D0600                                                   13800000
.D0610   AIF   (&IN).D0620                                              13850000
         CCW   &CMD,&IOA1+(&CNT*&RECS),X'60',&RECS  READ/WRITE CCW      13900000
         CCW   3,*,0,1  NOP CCW                                         13950000
         MEXIT                                                          14000000
.D0620   CCW   &CMD,&IOA1+(&CNT*&RECS),X'20',&RECS  READ/WRITE CCW      14050000
         MEXIT                                                          14100000
         MEND                                                           14150000
