         MACRO                                                          00050000
&NAME    DTFMT &BLKSIZE=,&CKPTREC=,&DEVADDR=,&EOFADDR=,&ERROPT=,&FILABL-00100000
               =,&IOAREA1=,&IOAREA2=,&IOREG=,&LABADDR=,&NOTEPNT=,&READ=-00150000
               ,&RECFORM=FIXUNB,&RECSIZE=,&REWIND=,&TYPEFLE=INPUT,&VARB-00200000
               LD=,&WLRERR=,&WORKA=,&TPMARK=,&MODNAME=,&SEPASMB=,&HDRIN-00250000
               FO=,&RDONLY=,&ERREXT=,&ASCII=,&BUFOFF=,&LENCHK=      3-8 00300000
         GBLB  &IJFINIT                                             3-8 00350000
         GBLC  &IJFMOD(14)                                          3-8 00400000
         LCLA  &BUFOFST,&BYTE16,&CLASS,&NUM,&PTR                    3-8 00450000
         LCLA  &FTY,&LSWI,&OSW1,&OSW2,&WSWI,&WERR,&BLKS,&RECS       3-8 00500000
         LCLA  &RNOT                                           @D61YDWP 00525000
         LCLB  &USA,&EXTERR,&OPTERR                            @DA01010 00550000
         LCLC  &FORMAT,&A,&B,&C,&D,&E,&TEST                         3-8 00600000
         LCLC  &LIORE,&LVBLD,&UNIT,&IOA1,&LRSZ                     3-10 00650000
         LCLC  &MODNAM                                         @D147DRR 00700000
&A       SETC  'W'                                                  3-8 00750000
&B       SETC  'Z'                                                  3-8 00800000
&C       SETC  'Z'                                                  3-8 00850000
&D       SETC  'Z'                                                  3-8 00900000
&E       SETC  'Z'                                                  3-8 00950000
&MODNAM  SETC  'IJJTCTL'                                       @D147DRR 01000000
&FORMAT  SETC  '&RECFORM'                                           3-8 01050000
.* IBM  DISK OPERATING SYSTEM                                           01100000
.* CHANGE ACTIVITY                                             @DA34599 01150000
.* MSGIE254 WHEN FILABL=NO IS SPECIFIED FOR A WORK FILE        @DA34599 01200000
.* @D65IDAK BLKSIZE < 64K                                      @D65IDAK 01210006
.* @DY45700 BLKS IN PARENTHESIS                                @DY45700 01220009
.*                                                                      01250000
         AGO   .ZZZ                                            @U31TUJS 01300000
*    THIS MACRO IS "RESTRICTED MATERIALS OF IBM"               @U31TUJS 01350000
*    5686-066 (C) COPYRIGHT IBM CORP. 1977,1999                @D65IDAK 01400006
*    ALL RIGHTS RESERVED                                       @U31TUJS 01450000
*    LICENSED MATERIALS - PROPERTY OF IBM                      @U31TUJS 01500000
*    SEE COPYRIGHT INSTRUCTIONS, G120-2083                     @U31TUJS 01550000
.ZZZ     ANOP                                                  @U31TUJS 01600000
* MAGNETIC TAPE IOCS - DTFMT - 5686-066-06-55C0                @D65IDAK 01650006
.************* TEST PARAMETERS                                      3-8 01700000
         AIF   ('&NAME' NE '').T00                                  3-8 01750000
         MNOTE 0,'NO FILENAME SPECIFIED'                                01800000
.T00     AIF   (T'&ASCII EQ 'O').T01                                3-8 01850000
         AIF   ('&TYPEFLE' NE 'WORK').T00A                          3-8 01900000
         MNOTE 0,'ASCII NOT ALLOWED WITH WORKFILES,IGNORED'         3-8 01950000
         AGO   .T01                                                 3-8 02000000
.T00A    AIF   ('&FORMAT' NE 'SPNUNB' AND '&FORMAT' NE 'SPNBLK').T00B  -02050000
                                                                    3-8 02100000
         MNOTE 0,'ASCII NOT ALLOWED WITH SPANNED RECORDS,IGNORED'   3-8 02150000
         AGO   .T01                                                 3-8 02200000
.T00B    AIF   ('&ASCII' EQ 'YES').T00C                             3-8 02250000
         MNOTE 0,'IMPROPER ASCII,''YES'' ASSUMED'                   3-8 02300000
.T00C    ANOP                                                       3-8 02350000
&BLKS    SETA  &BLKSIZE                                        @DA10927 02400000
&USA     SETB  1                                                    3-8 02450000
.T01     AIF   ('&IOAREA1' EQ '').T01A                         @DA03677 02500000
         AIF   ('&IOAREA2' EQ '').T01A                         @DA03677 02550000
         AIF   ('&IOAREA1' NE '&IOAREA2').T01A                 @DA03677 02600000
         MNOTE 0,'IOAREA1 AND IOAREA2 ARE EQUAL'               @DA03677 02650000
.T01A    AIF   (T'&BLKSIZE EQ 'N' OR T'&BLKSIZE EQ 'U').T025   @DA29203 02700000
.T024    AIF   ('&FORMAT' NE 'SPNUNB' AND '&FORMAT' NE 'SPNBLK').SP40  -02750000
                                                                    3-8 02800000
         AIF   ('&TYPEFLE' EQ 'OUTPUT').SP50                        3-7 02850000
.SP40    ANOP                                                       3-7 02900000
         MNOTE 0,'IMPROPER OR MISSING BLKSIZE.SET TO 12'                02950000
&BLKS    SETA  12                                                       03000000
         AGO   .T03                                                     03050000
.T025    AIF   ('&BLKSIZE'(1,1) EQ '(').T024                            03100000
         AIF   (NOT &USA OR '&FORMAT'(1,3) NE 'FIX').T25A           3-8 03150000
         AIF   ('&TYPEFLE' NE 'OUTPUT' OR &BLKSIZE GT 17).T25A      3-8 03200000
         MNOTE 0,'BLKSIZE LESS THAN 18 WITH OUTPUT,ASCII,FIXED RECORDS.-03250000
                 SET TO 18.'                                        3-8 03300000
&BLKS    SETA    18                                                 3-8 03350000
         AGO   .T03                                                 3-8 03400000
.T25A    AIF   ('&FORMAT' NE 'SPNUNB' AND '&FORMAT' NE 'SPNBLK').SP45  -03450000
                                                                    3-8 03500000
         AIF   ('&TYPEFLE' EQ 'OUTPUT' AND &BLKSIZE LE 17).SP50     3-7 03550000
.SP45    ANOP                                                       3-7 03600000
         AIF   (&BLKSIZE GE 12).T026                                3-8 03650000
         MNOTE 0,'BLKSIZE LESS THAN 12 BYTES.SET TO 12'                 03700000
&BLKS    SETA  12                                                       03750000
         AGO   .T03                                                     03800000
.T026    AIF   (NOT &USA OR &BLKS LE 2048).T026A                    3-8 03850000
         MNOTE 0,'BLKSIZE VIOLATES ASCII STANDARDS'            @DA10927 03900000
.T026A   AIF   (NOT &USA OR &BLKS LT 10000 OR '&FORMAT' NE 'VARUNB' AND-03950000
                '&FORMAT' NE 'VARBLK').T027                         3-8 04000000
         AIF   ('&BUFOFF' NE '4' OR T'&LENCHK EQ 'O' AND '&TYPEFLE' NE -04050000
                'OUTPUT').T027                                      3-8 04100000
         MNOTE 0,'BLKSIZE GT 9999,BLOCKPREFIX CANNOT CONTAIN BLOCKSIZE'-04150000
                                                                    3-8 04200000
.T027    AIF   (&BLKSIZE LE 65535).T027B                                04250008
         MNOTE 0,'BLKSIZE GREATER THAN 65535 BYTES.SET TO 65535'        04300008
&BLKS    SETA  65535                                         @D65IDAK   04350009
         AGO   .T03                                                     04400000
.SP50    MNOTE 0,'BLKSIZE LESS THAN 18 WITH TYPEFLE = OUTPUT AND RECFORX04450000
               M = SPNBLK OR RECFORM = SPNUNB. SET TO 18.'          3-7 04500000
&BLKS    SETA  18                                                   3-7 04550000
         AGO   .T03                                                 3-7 04600000
.T027B   ANOP                                                           04650000
&BLKS    SETA  &BLKSIZE                                                 04700000
&RECS    SETA  &BLKS                                                3-8 04750000
.T03     AIF   (T'&CKPTREC EQ 'O' OR NOT &USA).T03A                 3-8 04800000
         MNOTE 0,'INVALID CKPTREC,IGNORED'                          3-8 04850000
         AGO   .T05                                                 3-8 04900000
.T03A    AIF   (T'&CKPTREC EQ 'O' OR '&CKPTREC' EQ 'YES').T05       3-8 04950000
         MNOTE 0,'IMPROPER CKPTREC,''YES'' ASSUMED'                 3-8 05000000
.T05     AIF   ('&TYPEFLE' EQ 'OUTPUT' OR T'&EOFADDR NE 'O').T07        05050000
         MNOTE 0,'NO EOFADDR SPEC.SET TO *'                    @DA00726 05100000
.T07     ANOP                                                  @DA01010 05150000
         AIF   (T'&ERROPT EQ 'O' AND T'&ERREXT EQ 'O').T07A    @DA15941 05200000
         AIF   (T'&ERROPT NE 'O' AND T'&ERREXT NE 'O').T07A    @DA15941 05250000
         AIF   (T'&ERROPT EQ 'O').T07AA                        @DA15941 05300000
         AIF   ('&TYPEFLE' NE 'OUTPUT').T07A                   @DA15941 05350000
         MNOTE 0,'ERREXT NOT SPECIFIED. ERROPT IGNORED.'            3-8 05400000
         AGO   .T07AAA                                         @DA15941 05450000
.T07AA   MNOTE 0,'ERROPT NOT SPECIFIED. ERREXT IGNORED.'       @DA15941 05500000
.T07AAA  ANOP                                                  @DA15941 05550000
&OPTERR  SETB  1                                               @DA01010 05600000
         AGO   .T08                                                 3-8 05650000
.T07A    AIF   ('&ERROPT' EQ 'SKIP' OR '&ERROPT' EQ 'IGNORE' OR '&ERROP-05700000
               T' EQ '' OR T'&ERROPT EQ 'I' OR T'&ERROPT EQ 'T').T08    05750000
         AIF   (T'&ERROPT EQ 'M' OR T'&ERROPT EQ 'U').T08               05800000
         MNOTE *,'***** ERROPT POSSIBLE ERROR *****'                    05850000
.T08     AIF   (T'&ERREXT EQ 'O' OR &OPTERR).T09A                   3-8 05900000
         AIF   ('&ERROPT' NE '' AND ('&TYPEFLE' NE 'OUTPUT' OR '&ERROPT-05950000
               ' NE 'IGNORE' AND '&ERROPT' NE 'SKIP')).T08A         3-8 06000000
         AIF   ('&TYPEFLE' EQ 'OUTPUT' AND ('&ERROPT' NE 'IGNORE' AND  -06050000
               '&ERROPT' NE 'SKIP')).T08A                      @DA30466 06100000
         MNOTE 0,'INVALID COMBINATION OF ERROPT AND ERREXT,ERREXT IGNOR-06150000
               ED'                                                  3-8 06200000
         AGO   .T09A                                                3-8 06250000
.T08A    AIF   (T'&ERREXT EQ 'O').T09A                              3-8 06300000
&EXTERR  SETB  1                                                    3-8 06350000
         AIF   ('&ERREXT' EQ 'YES').T09A                            3-8 06400000
         MNOTE 0,'IMPROPER ERREXT,''YES'' ASSUMED'                  3-8 06450000
.T09A    AIF   ('&RDONLY' EQ 'YES' OR T'&RDONLY EQ 'O').T09C        3-4 06500000
         MNOTE 0,'IMPROPER RDONLY PARAMETER, YES ASSUMED'           3-4 06550000
.T09C    AIF   ('&TYPEFLE' EQ 'WORK').T14                           3-4 06600000
         AIF   ('&FILABL' EQ 'STD' OR '&FILABL' EQ 'NSTD' AND NOT &USA -06650000
               OR '&FILABL' EQ 'NO').T09                            3-8 06700000
         MNOTE 0,'INVALID OR OMITTED FILABL, '' NO '' ASSUMED'          06750000
.T09     AIF   ('&IOAREA1' NE '').T12                               3-8 06800000
         MNOTE 0,'IOAREA1 NOT SPEC.SET TO *'                   @DA00726 06850000
&IOA1    SETC  '*'                                             @DA02108 06900000
.T12     AIF   (T'&IOREG EQ 'O').T14                                    06950000
         AIF   ('&IOREG'(1,1) EQ '(').T13                               07000000
         MNOTE 0,'IOREG NOT WITHIN PARENTHESES'                @DA00726 07050000
         AIF   ('&IOREG' LT '2' OR '&IOREG' GT '12').T135A              07100000
&LIORE   SETC  '&IOREG'                                                 07150000
         AGO   .T14                                                     07200000
.T13     ANOP                                                           07250000
&LIORE   SETC  '&IOREG(1)'                                              07300000
         AIF   (&LIORE GE 2 AND &LIORE LE 12).T14                   3-8 07350000
.T135A   MNOTE 0,'IOREG NOT A REG. 2-12.SET TO REG 2'                   07400000
&LIORE   SETC  '2'                                                      07450000
.T14     AIF   (T'&NOTEPNT EQ 'O').T16                                  07500000
         AIF   ('&TYPEFLE' EQ 'WORK').T15A                              07550000
         MNOTE 0,'NOTEPNT INVALID PARAMETER.IGNORED'                    07600000
         AGO   .T16                                                     07650000
.T15A    AIF   ('&NOTEPNT' EQ 'YES' OR '&NOTEPNT' EQ 'POINTS').T16      07700000
         MNOTE 0,'IMPROPER NOTEPNT.''YES'' ASSUMED'                     07750000
.T16     AIF   ('&READ' EQ '' OR '&READ' EQ 'BACK' OR '&READ' EQ 'FORWA-07800000
               RD').T17                                                 07850000
         MNOTE 0,'IMPROPER READ.''FORWARD'' ASSUMED'                    07900000
.T17     AIF   ('&FORMAT' EQ 'FIXUNB' OR '&FORMAT' EQ 'VARUNB' OR '&FOR-07950000
               MAT' EQ 'VARBLK').T18                                3-8 08000000
         AIF   ('&FORMAT' EQ 'FIXBLK').T19                          3-8 08050000
         AIF   ('&FORMAT' EQ 'UNDEF').T22                           3-8 08100000
         AIF   ('&FORMAT' EQ 'SPNUNB' OR '&FORMAT' EQ 'SPNBLK').SP00   -08150000
                                                                    3-8 08200000
         MNOTE 0,'IMPROPER RECFORM.''FIXUNB'' ASSUMED'                  08250000
&FORMAT  SETC  'FIXUNB'                                             3-8 08300000
.T18     AIF   ('&RECSIZE' EQ '').T26                                   08350000
         MNOTE 0,'RECSIZE NOT NEEDED,IGNORED'                           08400000
         AGO   .T26                                                     08450000
.T19     AIF   ('&RECSIZE' NE '').T20                                   08500000
         MNOTE 0,'NO RECSIZE SPEC. SET TO BLKSIZE'             @DA00726 08550000
         AGO   .T26                                                     08600000
.T20     AIF   (T'&RECSIZE EQ 'N').T21                                  08650000
         MNOTE 0,'RECSIZE NOT A NUMBER,IGNORED'                         08700000
         AGO   .T26                                                     08750000
.T21     AIF   ('&RECSIZE' GE '12').T21BB                               08800000
         MNOTE *,'***** RECSIZE LESS THAN 12 BYTES *****'               08850000
.T21BB   AIF   (&BLKS-(&BLKS/&RECSIZE)*&RECSIZE EQ 0 OR &USA AND '&TYPE-08900000
               FLE' NE 'OUTPUT').T21A                               3-8 08950000
         MNOTE 0,'BLOCKSIZE NOT A MULTIPLE OF RECSIZE'         @DA00726 09000000
.T21A    ANOP                                                           09050000
&RECS    SETA  &RECSIZE                                             3-8 09100000
         AGO   .T26                                                     09150000
.T22     AIF   ('&TYPEFLE' EQ 'WORK').T24A                              09200000
         AGO   .SP05                                                3-7 09250000
.SP00    ANOP                                                       3-7 09300000
&BYTE16  SETA  4                                                    3-8 09350000
.SP05    AIF   (T'&RECSIZE NE 'O').T225                             3-8 09400000
         AIF   ('&TYPEFLE' NE 'OUTPUT' AND '&FORMAT'(1,1) NE 'S').T26  -09450000
                                                                    3-8 09500000
         MNOTE 0,'NO RECSIZE SPECIFIED.SET TO REG 2'                    09550000
&LRSZ    SETC  '2'                                                      09600000
         AGO   .T26                                                     09650000
.T225    AIF   ('&RECSIZE'(1,1) EQ '(').T24                             09700000
         MNOTE 0,'RECSIZE NOT WITHIN PARENTHESES'              @DA00726 09750000
&LRSZ    SETC  '&RECSIZE'                                               09800000
         AIF   ('&RECSIZE' LT '2' OR '&RECSIZE' GT '12').T25            09850000
         AGO   .T26                                                     09900000
.T24     ANOP                                                           09950000
&LRSZ    SETC  '&RECSIZE(1)'                                            10000000
         AIF   (&LRSZ LT 2 OR &LRSZ GT 12).T25                          10050000
         AGO   .T26                                                     10100000
.T24A    AIF   (T'&RECSIZE EQ 'O').T26                                  10150000
         MNOTE 0,'RECSIZE INVALID PARAMETER.IGNORED'                    10200000
         AGO   .T26                                                     10250000
.T25     MNOTE 0,'RECSIZE NOT A REG.2-12.SET TO REG 2'                  10300000
&LRSZ    SETC  '2'                                                      10350000
.T26     AIF   ('&REWIND' EQ '' OR '&REWIND' EQ 'UNLOAD' OR '&REWIND' E-10400000
               Q 'NORWD').T27                                           10450000
         MNOTE 0,'IMPROPER REWIND,IGNORED'                              10500000
.T27     AIF   ('&TYPEFLE' EQ 'INPUT' OR '&TYPEFLE' EQ 'OUTPUT').T28    10550000
         AIF   ('&TYPEFLE' EQ 'WORK').T37                               10600000
         MNOTE 0,'IMPROPER TYPEFLE,''INPUT'' ASSUMED'               3-8 10650000
.T28     AIF   (T'&TPMARK EQ 'O' OR '&TPMARK' EQ 'NO' OR '&TPMARK' EQ '-10700000
               YES').T29                                       @DA15201 10750000
         MNOTE 0,'IMPROPER TPMARK, ''NO'' ASSUMED'                      10800000
.T29     AIF   ('&FORMAT' EQ 'VARBLK').T30                          3-8 10850000
         AIF   ('&VARBLD' EQ '').T35                                    10900000
         MNOTE 0,'VARBLD INVALID PARAMETER.IGNORED'                     10950000
         AGO   .T35                                                     11000000
.T30     AIF   (T'&WORKA EQ 'O' OR T'&VARBLD EQ 'O').T30S           3-8 11050000
         AIF   ('&WORKA' NE 'YES' OR  T'&VARBLD EQ 'O').T30S            11100000
         MNOTE 0,'WORKA AND VARBLD SPECIFIED, VARBLD IGNORED'           11150000
.T30S    AIF   ('&TYPEFLE' NE 'OUTPUT' OR '&WORKA' EQ 'YES').T35        11200000
         AIF   ('&VARBLD' NE '').T31                                    11250000
         MNOTE 0,'NO VARBLD REG. SPEC.'                        @DA00726 11300000
         AGO   .T35                                                     11350000
.T31     AIF   ('&VARBLD'(1,1) EQ '(').T33                              11400000
         MNOTE 0,'VARBLD NOT WITHIN PARENTHESES'                        11450000
&LVBLD   SETC  '&VARBLD'                                                11500000
         AIF   ('&VARBLD' LT '2' OR '&VARBLD' GT '13').T34              11550000
         AGO   .T35                                                     11600000
.T33     ANOP                                                           11650000
&LVBLD   SETC  '&VARBLD(1)'                                             11700000
         AIF   (&LVBLD LT 2 OR &LVBLD GT 13).T34                        11750000
         AGO   .T35                                                     11800000
.T34     MNOTE 0,'VARBLD NOT A REG. 2-13.SET TO REG 2'         @DA00726 11850000
&LVBLD   SETC  '2'                                                      11900000
.T35     AIF   (T'&WORKA EQ 'O' OR '&WORKA' EQ 'YES').T38           3-8 11950000
         MNOTE 0,'IMPROPER WORKA,''YES'' ASSUMED'                   3-8 12000000
.T38     AIF   ('&FORMAT' EQ 'FIXUNB').T41                          3-8 12050000
         AIF   ('&FORMAT'(1,1) EQ 'S').SP10                         3-8 12100000
         AIF   ('&READ' EQ 'BACK' OR T'&IOAREA2 NE 'O').T40         3-8 12150000
         AIF   ('&FORMAT'(4,3) EQ 'BLK').T40                        3-8 12200000
         AGO   .T41                                                     12250000
.T37     AIF   ('&FORMAT' EQ 'FIXUNB' OR '&FORMAT' EQ 'UNDEF').T42  3-8 12300000
         MNOTE 0,'IMPROPER RECFORM,''FIXUNB'' ASSUMED' FOR WORKFILES3-8 12350000
&FORMAT  SETC  'FIXUNB'                                             3-8 12400000
         AGO   .T41                                                 3-8 12450000
.SP10    AIF   ('&WORKA' EQ 'YES').T41                              3-7 12500000
         MNOTE 0,'MISSING WORKA WITH RECFORM = SPNUNB OR RECFORM = SPNBX12550000
               LK. WORKA = YES ASSUMED.'                            3-7 12600000
         AGO   .T41                                                 3-7 12650000
.T40     AIF   (T'&WORKA NE 'O' OR T'&IOREG NE 'O').T41             3-8 12700000
         MNOTE 0,'NO WORKAREA OR IOREG SPEC. REASSEMBLE'                12750000
         AGO   .T41A                                                3-8 12800000
.T41     AIF   ('&WORKA' NE '' OR '&IOREG' NE '').T41A              3-8 12850000
         AIF   ('&IOAREA2' EQ '').T41A                              3-8 12900000
         MNOTE 0,'NO WORKA OR IOREG SPEC. REASSEMBLE'               3-8 12950000
.T41A    AIF   ('&TYPEFLE' NE 'OUTPUT').T42                         3-8 13000000
         AIF   ('&READ' NE 'BACK').T42                                  13050000
         MNOTE 0,'YOU CANNOT WRITE TAPE BACKWARDS, FORWARD ASSUMED'     13100000
.T42     AIF   (T'&WORKA EQ 'O' OR T'&IOREG EQ 'O').T43        @DA12285 13150000
         MNOTE 0,'BOTH WORKAREA  AND  IOREG SPEC. REASSEMBLE'  @DA12285 13200000
.T43     AIF   (K'&DEVADDR NE 6).ERR                                    13250000
         AIF   ('&DEVADDR'(1,3) NE 'SYS').ERR                           13300000
&UNIT    SETC  '&DEVADDR'(4,3)                                          13350000
         AIF   ('&UNIT' LT '000' OR '&UNIT' GT '254').LTRS     @DA31417 13400000
       AIF   ('&UNIT'(2,1)  LT  '0'  OR  '&UNIT'(2,1)  GT  '9').ERR     13450000
       AIF   ('&UNIT'(3,1)  LT  '0'  OR  '&UNIT'(3,1)  GT  '9').ERR     13500000
&CLASS SETA  1                         PROBLEM PROGRAM UNIT CLASS       13550000
&NUM   SETA  &UNIT                     NUMBER IN CLASS                  13600000
       AGO   .FND                      GO CHECK CCWADD ENTRY            13650000
.LTRS    AIF   (&USA).ERR                                           3-8 13700000
       AIF   ('&UNIT'  EQ  'RDR').FND     SYSRDR                    3-8 13750000
&NUM   SETA  1                                                          13800000
       AIF   ('&UNIT'  EQ  'IPT').FND     SYSIPT                        13850000
&NUM   SETA  2                                                          13900000
       AIF   ('&UNIT'  EQ  'PCH').FND     SYSPCH                        13950000
&NUM   SETA  3                                                          14000000
       AIF   ('&UNIT'  EQ  'LST').FND     SYSLST                        14050000
.ERR     MNOTE 0,'IMPROPER OR MISSING DEVADDR.SET TO ''FFFF'''          14100000
&CLASS SETA  255                                                        14150000
&NUM   SETA  255                       SET INVALID VALUE                14200000
.FND     AIF   (T'&BUFOFF EQ 'O').T202                              3-8 14250000
         AIF   (T'&BUFOFF NE 'N' OR NOT &USA).T201A                 3-8 14300000
         AIF   ('&TYPEFLE' NE 'OUTPUT' AND &BUFOFF LE 99).T201B     3-8 14350000
         AIF   ('&TYPEFLE' EQ 'OUTPUT' AND (&BUFOFF EQ 0 OR &BUFOFF EQ -14400000
               4 AND '&FORMAT'(1,1) EQ 'V')).T201B                  3-8 14450000
.T201A   MNOTE 0,'IMPROPER OR INVALID BUFOFF, IGNORED'              3-8 14500000
         AGO   .T202                                                3-8 14550000
.T201B   ANOP                                                       3-8 14600000
&BUFOFST SETA  &BUFOFF                                              3-8 14650000
         AIF   (&BUFOFST EQ 0 OR T'&IOREG NE 'O' OR T'&WORKA NE 'O').T2-14700000
               02                                                   3-8 14750000
         MNOTE 0,'IOREG OR WORKA NEEDED FOR BUFOFF NE 0'            3-8 14800000
.T202    AIF   (T'&LENCHK EQ 'O' OR &USA AND &BUFOFST EQ 4 AND '&FORMAT-14850000
               '(1,1) EQ 'V').T202A                                 3-8 14900000
         MNOTE 0,'INVALID LENCHK,IGNORED'                           3-8 14950000
         AGO   .T203                                                3-8 15000000
.T202A   AIF   (T'&LENCHK EQ 'O' OR '&LENCHK' EQ 'YES').T203        3-8 15050000
         MNOTE 0,'IMPROPER LENCHK,''YES'' ASSUMED'                  3-8 15100000
.T203    AIF   (K'&NAME LT 8).NAMOK                                 3-8 15150000
         MNOTE 9,'FILE NAME EXCEEDS SEVEN CHAR LIMIT, MACRO GENERATION *15200000
               TERMINATED'                                              15250000
         MEXIT                                                          15300000
.NAMOK   AIF   (T'&WLRERR NE 'O' AND '&TYPEFLE' EQ 'OUTPUT').WLRR   3-9 15350000
         AGO   .SEPAS                                               3-9 15400000
.WLRR    ANOP                                                       3-9 15450000
         MNOTE 0,'WLRERR PARAMETER INVALID FOR OUTPUT FILE.IGNORED' 3-9 15500000
.SEPAS   AIF   (T'&SEPASMB EQ 'O').NEW2                             3-9 15550000
         AIF   ('&SEPASMB' EQ 'YES').NEW3                               15600000
         MNOTE 0,'IMPROPER SEPASMB.''YES'' ASSUMED'                     15650000
.NEW3    AIF   (T'&NAME NE 'O').NEW1                                    15700000
         MNOTE 9,'MISSING FILE NAME, MACRO GENERATION TERMINATED'       15750000
         MEXIT                                                          15800000
.************* BUILD DTF TABLE                                      3-8 15850000
.NEW1    PUNCH '    CATALR &NAME,35.2'                         @DA12285 15900000
&NAME.C  CSECT                                                          15950000
         ENTRY &NAME                                                    16000000
.NEW2    DC    0D'0'                                                3-8 16050000
         AIF   (T'&ERROPT EQ 'O' OR &OPTERR).T464              @DA01010 16100000
         AIF   (NOT &EXTERR).RS1                                    3-8 16150000
&NAME    DC    X'000092000000'                                      3-4 16200000
         AGO   .T465                                                3-8 16250000
.RS1     ANOP                                                       3-4 16300000
         AIF   ('&TYPEFLE' EQ 'OUTPUT').T464                   @DA15941 16350000
&NAME    DC    X'000082000000'                                      3-4 16400000
         AGO   .T465                                                    16450000
.T464    ANOP                                                       3-8 16500000
&NAME    DC    X'000080000000'         CCB                              16550000
.T465    DC    AL1(&CLASS)             LOGICAL UNIT CLASS               16600000
         DC    AL1(&NUM)               LOGICAL UNIT                     16650000
         AIF   (NOT &USA).T300                                      3-8 16700000
         DC    AL1(&BUFOFST)           BUFFER OFFSET                3-8 16750000
         DC    AL3(IJF1&SYSNDX)        CCW ADDRESS                  3-8 16800000
         AGO   .T301                                                3-8 16850000
.T300    DC    AL4(IJF1&SYSNDX)        CCW ADDRESS                  3-8 16900000
.T301    DC    4X'00'                  CCB-ST BYTE,CSW CCW ADDRESS  3-8 16950000
         AIF   (NOT &USA).T400                                      3-8 17000000
&BYTE16  SETA  2                                                    3-8 17050000
         AIF   (&BUFOFST EQ 0 OR '&TYPEFLE' NE 'OUTPUT' AND (T'&LENCHK -17100000
               EQ 'O' OR &BUFOFST NE 4 OR '&FORMAT'(1,1) NE 'V')).T400  17150000
.* THE ABOVE AIF STATEMENT WAS ADDED AT 3-8                         3-8 17200000
&BYTE16  SETA  3                                                    3-8 17250000
.T400    DC    AL1(&BYTE16)                                         3-8 17300000
.**      AIF   ('&MODNAME' EQ '').T47                                   17350000
         DC    VL3(&MODNAM)            ADDRESS OF LOGIC MODULE @D147DRR 17400000
         AGO   .T48                                                     17450000
.************* BUILD SUPERSET OF MODULES WANTED UNTIL NOW           3-8 17500000
.T47     AIF   (&IJFINIT).T47A                                      3-8 17550000
&PTR     SETA  &PTR+1                                               3-8 17600000
&IJFMOD(&PTR) SETC 'ZZZZZ'                                          3-8 17650000
         AIF   (&PTR LT 14).T47                                     3-8 17700000
.T47A    ANOP                                                       3-8 17750000
&IJFINIT SETB  1                                                    3-8 17800000
&PTR     SETA  1                                                    3-8 17850000
         AIF   (T'&RDONLY EQ 'O' AND NOT &EXTERR).T47B              3-8 17900000
&E       SETC  'N'                                                  3-8 17950000
         AIF   (T'&RDONLY EQ 'O' AND &EXTERR).T47B                  3-8 18000000
&E       SETC  'M'                                                  3-8 18050000
&PTR     SETA  8                                                    3-8 18100000
         AIF   (T'&RDONLY NE 'O' AND &EXTERR).T47B                  3-8 18150000
&E       SETC  'Y'                                                  3-8 18200000
.T47B    AIF   ('&TYPEFLE' EQ 'WORK').T47G                          3-8 18250000
&A       SETC  'F'                                                  3-8 18300000
&PTR     SETA  &PTR+1                                               3-8 18350000