         MACRO                                                          00050000
&NAME    DTFMR &SORTMDE=,&MODNAME=,&DEVADDR=,&BUFFERS=,&EXTADDR=,      *00100000
               &IOAREA1=,&ADDRESS=,&RECSIZE=,&ADDAREA=,&IOREG=,        *00150000
               &SEPASMB=,&SECADDR=,&ERROPT=,                           *00200000
               &DEVICE=,&WORKA=,&IPXIT=,&ERRXIT=               @D3600LH 00250000
         LCLA  &ADD,&REC,&NUM,&CLASS,&SIZE,&ADDR,&SECLAS,&SECNUM,&MDE   00300000
         LCLA  &BLKS,&AD,&E                                    @DA00329 00350000
         LCLC  &UNIT,&EXT,&IORG,&BUFF,&UNIT2,&ERR                       00400000
.* IBM DISK OPERATING SYSTEM                                            00450000
         AIF   (T'&DEVICE EQ 'O').DVC1419                      @D3600LH 00500000
         AIF   ('&DEVICE' EQ '3890').DVC3890                   @D3600LH 00550000
         MNOTE 12,'INVALID DEVICE TYPE SPECIFIED, MACRO TERMINATED'     00600000
         MEXIT                                                 @D3600LH 00650000
.DVC3890 ANOP                                                  @D3600LH 00700000
.* 3890 SUPPORT PROGRAM PRODUCT HOOK                           @D3600LH 00750000
&NAME    DTFMRS &DEVADDR,&IOAREA1,&WORKA,&IOREG,&IPXIT,        @D3600LH*00800000
               &ERRXIT,&ERROPT,&MODNAME                        @D3600LH 00850000
         MEXIT                                                 @D3600LH 00900000
.DVC1419 ANOP                                                  @D3600LH 00950000
* MAGN CHAR READER IOCS - DTFMR - 5745-SC-MCR REL. 30.0        @DA00329 01000000
*                                                                       01050000
* COPYRIGHT = THIS MACRO IS "RESTRICTED MATERIALS OF IBM"     *@D41TDKY 01100000
*             5686-007 (C) COPYRIGHT IBM CORP. 1974, 1988     *@D41TDKY 01150000
*             ALL RIGHTS RESERVED                             *@D41TDKY 01200000
*             LICENSED MATERIALS-PROPERTY OF IBM              *@D41TDKY 01250000
.*            SEE COPYRIGHT INSTRUCTIONS, G120-2083           *@D41TDKY 01300000
*                                                                       01350000
.*                                                                      01400000
.*  FUNCTIONS                                                           01450000
.*             THE OBJECTIVES OF THIS MACRO ARE TO CREATE A DTF TABLE   01500000
.*             TO OPERATE IN CONJUNCTION WITH THE MRMOD TO ALLOW        01550000
.*             OPERATION OF THE 1412/1419 MICR DEVICES.                 01600000
.*                                                                      01650000
.*  ENTRY                                                               01700000
.*             ENTRY TO THIS MACRO IS BY THE IN LINE ISSUANCE OF THE    01750000
.*             DTFMR STATEMENT.                                         01800000
.*                                                                      01850000
.*  METHOD                                                              01900000
.*             THE METHODS USED TO ACCOMPLISH THE SAID OBJECTIVES ARE   01950000
.*             BY CHECKING ALL THE ENTRIES GIVEN IN THE DTFMR STATEMENT 02000000
.*             AND DIAGNOSING ANY ERROR OR MISSING PARAMETERS.  A TABLE 02050000
.*             IS THEN BUILT TAILORED TO THE SET OF PARAMETERS ISSUED   02100000
.*             IN THE DTFMR STATEMENT.                                  02150000
.*                                                                      02200000
.*  INPUT                                                               02250000
.*             THE INPUT USED IN GENERATING THE DTF TABLE IS FOUND IN   02300000
.*             THE DTFMR ENTRY STATEMENTS.                              02350000
.*                                                                      02400000
.*  OUTPUT                                                              02450000
.*             OUTPUT FROM THE DTF IS A GENERATED TABLE TAILORED TO THE 02500000
.*             PARAMETERS GIVEN IN THE DTFMR STATEMENT.                 02550000
.*                                                                      02600000
.*  MESSAGES                                                            02650000
.*             ALL MESSAGES ISSUED WITHIN THE DTFMR ARE IN THE FORM     02700000
.*             OF DIAGNOSTICS MNOTES.                                   02750000
.*                                                                      02800000
.*  EXITS                                                               02850000
.*       NORMAL                                                         02900000
.*             THE NORMAL EXIT TO THIS DTF IS AT THE END OF GENERATION  02950000
.*             OF THE DTFMR TABLE WHEN CONTROL IS GIVEN BACK TO THE     03000000
.*             USER AT THE NEXT SEQUENTIAL INSTRUCTION.                 03050000
.*       ABNORMAL                                                       03100000
.*             THE ONLY ABNORMAL EXIT OCCURS WHEN A FILENAME IS NOT     03150000
.*             GIVEN.  THE ROUTINE IS EXITED WITHOUT A TABLE BEING      03200000
.*             GENERATED.                                               03250000
.*                                                                      03300000
.*  DEFINITIONS                                                         03350000
.*       REGISTERS                                                      03400000
.*             BASE REGISTER (BASEREG) IS REGISTER NUMBER 15            03450000
.*                                                                      03500000
.*                                                                      03550000
         SPACE 1                                                        03600000
         AIF   ('&ADDAREA' NE '').SKIP2                                 03650000
         MNOTE 0,'NO ADDAREA IS SPECIFIED. SET TO ZERO'                 03700000
&ADD     SETA  0                                                        03750000
         AGO   .SKIP3                                                   03800000
.SKIP2   ANOP                                                           03850000
&ADD     SETA  &ADDAREA                                                 03900000
.SKIP3   AIF   ('&RECSIZE' NE '').SKIP4                                 03950000
.D4      MNOTE 0,'IMPROPER OR MISSING RECSIZE. SET TO 80'               04000000
&REC     SETA  80                                                       04050000
         AGO   .G1                                                      04100000
.SKIP4   ANOP                                                           04150000
&REC     SETA  &RECSIZE                                                 04200000
.G1      ANOP                                                           04250000
&AD      SETA  &ADD+&REC                                                04300000
         AIF   ('&AD' LT '251').SKIP5                                   04350000
         MNOTE 0,'RECSIZE + ADDAREA GREATER THAN 250'                   04400000
         MNOTE 'RECSIZE ASSUMED = 80  ADDAREA ASSUMED = 0'              04450000
&ADD     SETA  0                                                        04500000
&REC     SETA  80                                                       04550000
.SKIP5   AIF   ('&ADDRESS' EQ 'DUAL').SKIP6                             04600000
         AIF   ('&ADDRESS' EQ '').C1                                    04650000
         MNOTE 0,'IMPROPER ADDRESS. SINGLE ASSUMED'                     04700000
.C1      ANOP                                                           04750000
&ADDR    SETA  0                                                        04800000
         AGO   .SKIP9                                                   04850000
.SKIP6   ANOP                                                           04900000
&ADDR    SETA  1                                                        04950000
.SKIP9   AIF   ('&IOAREA1' NE '').SKIP10                                05000000
         MNOTE 0,'NO IOAREA1 ADDRESS SPECIFIED. SET TO *'               05050000
&BUFF    SETC  '*'                                                      05100000
         AGO   .SKIP11                                                  05150000
.SKIP10  ANOP                                                           05200000
&BUFF    SETC  '&IOAREA1'                                               05250000
.SKIP11  AIF   ('&ERROPT' NE '').D1                                     05300000
&ERR     SETC  '*'                                                      05350000
         AGO   .D2                                                      05400000
.D1      ANOP                                                           05450000
&E       SETA  1                                               @DA00329 05500000
&ERR     SETC  '&ERROPT'                                                05550000
.D2      AIF   ('&BUFFERS' NE '').SKIP12                                05600000
.D3      MNOTE 0,'IMPROPER OR MISSING BUFFERS. SET TO 25'               05650000
&SIZE    SETA  25                                                       05700000
         AGO   .B1                                                      05750000
.SKIP12  AIF   ('&BUFFERS' LT '12').D3                                  05800000
&SIZE    SETA  &BUFFERS                                                 05850000
.B1      AIF   (K'&DEVADDR NE 6).ERR                                    05900000
         AIF   ('&DEVADDR'(1,3) NE 'SYS').ERR                           05950000
&UNIT    SETC  '&DEVADDR'(4,3)                                          06000000
         AIF   ('&UNIT' LT '000' OR '&UNIT' GT '244').ERR               06050000
         AIF   ('&UNIT'(2,1)  LT  '0'  OR  '&UNIT'(2,1)  GT  '9').ERR   06100000
         AIF   ('&UNIT'(3,1)  LT  '0'  OR  '&UNIT'(3,1)  GT  '9').ERR   06150000
&CLASS   SETA  1                                                        06200000
&NUM     SETA  &UNIT                                                    06250000
         AGO   .FND                                                     06300000
.ERR     MNOTE 0,'IMPROPER OR MISSING DEVADDR SET TO ''FFFF'''          06350000
&CLASS   SETA  255                                                      06400000
&NUM     SETA  255                                                      06450000
.FND     AIF   ('&ADDRESS' NE 'DUAL').SKIP13                            06500000
         AIF   ('&SECADDR' EQ '').F1                                    06550000
         AIF   (K'&SECADDR NE 6).ER                                     06600000
         AIF   ('&SECADDR'(1,3) NE 'SYS').ER                            06650000
&UNIT2   SETC  '&SECADDR'(4,3)                                          06700000
         AIF   ('&UNIT2' LT '000'  OR  '&UNIT2'  GT  '244').ER          06750000
         AIF   ('&UNIT2'(2,1)  LT  '0' OR  '&UNIT2'(2,1)  GT  '9').ER   06800000
         AIF   ('&UNIT2'(3,1)  LT  '0'  OR  '&UNIT2'(3,1)  GT  '9').ER  06850000
&SECLAS  SETA  1                                                        06900000
&SECNUM  SETA  &UNIT2                                                   06950000
         AGO   .SKIP13                                                  07000000
.ER      MNOTE 0,'IMPROPER SECADDR. SET TO ''FFFF'''                    07050000
.F1      ANOP                                                           07100000
&SECLAS  SETA  255                                                      07150000
&SECNUM  SETA  255                                                      07200000
.SKIP13  AIF   (T'&IOREG EQ '').A1                                      07250000
         AIF   ('&IOREG(1)' GE '2' AND '&IOREG(1)' LE '12').A2          07300000
.A1      MNOTE 0,'IMPROPER OR MISSING IOREG. SET TO 2'                  07350000
&IORG    SETC  '2'                                                      07400000
         AGO   .A3                                                      07450000
.A2      ANOP                                                           07500000
&IORG    SETC  '&IOREG(1)'                                              07550000
.A3      AIF   ('&SORTMDE' EQ '').C2                                    07600000
         AIF   ('&SORTMDE' EQ 'OFF').A4                                 07650000
         AIF   ('&SORTMDE' EQ 'ON').C2                                  07700000
         MNOTE 0,'IMPROPER SORTMDE SPECIFIED-PROGRAM SORT MODE ASSUMED' 07750000
.C2      ANOP                                                           07800000
         AIF   ('&EXTADDR' NE '').SKIP8                                 07850000
         MNOTE 0,'NO EXTADDR SPECIFIED. SET TO  *'                      07900000
&EXT     SETC  '*'                                                      07950000
         AGO   .C3                                                      08000000
.SKIP8   ANOP                                                           08050000
&EXT     SETC  '&EXTADDR'                                               08100000
.C3      ANOP                                                           08150000
&MDE     SETA  1                                                        08200000
         AGO   .A5                                                      08250000
.A4      ANOP                                                           08300000
&EXT     SETC  '*'                                                      08350000
&MDE     SETA  0                                                        08400000
.A5      ANOP                                                           08450000
&BLKS    SETA  &ADD+&REC+6                                              08500000
         AIF   (T'&SEPASMB EQ 'O').A6                                   08550000
         AIF   ('&SEPASMB' EQ 'YES').A6                                 08600000
         MNOTE 0,'IMPROPER SEPASMB. ''YES'' ASSUMED'                    08650000
.A6      AIF   ('&NAME' NE '').A7                                       08700000
         MNOTE 0,'NO FILENAME SPECIFIED  GENERATION TERMINATED'         08750000
         MEXIT                                                          08800000
.A7      AIF   (K'&NAME LT 8).G2                                        08850000
         MNOTE 9,'FILENAME EXCEEDS SEVEN CHAR. LIMIT, MACRO GENERATION *08900000
               TERMINATED.'                                             08950000
         MEXIT                                                          09000000
.G2      AIF   (T'&SEPASMB EQ 'O').A8                                   09050000
         PUNCH '    CATALR &NAME,3.3'                               3-3 09100000
&NAME.C  CSECT                                                          09150000
         ENTRY &NAME                                                    09200000
.A8      DS    0D                                                       09250000
&NAME    DC    X'00008&E.000000'  CCB                          @DA00329 09300000
         DC    AL1(&CLASS)      LOGICAL UNIT CLASS                      09350000
         DC    AL1(&NUM)               LOGICAL UNIT NUMBER              09400000
         DC    AL4(IJU1&SYSNDX)        CCW ADDRESS                      09450000
         DC    4X'00'                  CCB                              09500000
         AIF   ('&MODNAME' EQ '').SKIP14                                09550000
         DC    AL1(0)                                                   09600000
         DC    VL3(&MODNAME)           ADDRESS OF LOGICAL MODULE        09650000
         AGO   .SKIP15                                                  09700000
.SKIP14  DC    AL1(0)                                                   09750000
         AIF   ('&ADDRESS' EQ 'DUAL').B2                                09800000
         DC    VL3(IJUSZZZZ)                                            09850000
         AGO   .SKIP15                                                  09900000
.B2      DC    VL3(IJUDZZZZ)                                            09950000
.SKIP15  DC    X'0B'                   DTF TYPE FILE INDICATOR          10000000
         DC    B'0&MDE.0&ADDR.0000'    LOGICAL MODULE SWITCHES          10050000
         AIF   ('&NAME' NE '').SKIP16                                   10100000
         DC    CL8' '                  BLANK FILENAME                   10150000
         AGO   .SKIP17                                                  10200000
.SKIP16  DC    CL8'&NAME'              FILENAME                         10250000
.SKIP17  DC    X'00000000'             OPEN CLOSE SWITCHES              10300000
         DC    X'0000'                 LOGICAL MODULE SWITCHES          10350000
         DC    X'00000000'             ERROR INFORMATION STATUS         10400000
         AIF   ('&ADDRESS' EQ 'DUAL').A9                                10450000
        DC    AL2(248)                LENGTH OF DTF TABLE               10500000
         AGO   .A10                                                     10550000
.A9      DC    AL2(264)                LENGTH OF DTF TABLE              10600000
.A10     DC    X'0000'                 DEVICE TYPE INDICATOR            10650000
         DC    X'0000'                 RECORD TYPE                      10700000
         DC    X'00000000'             RESERVED                         10750000
         DC    X'00'                                                    10800000
         DC    AL1(&IORG)              I/O REGISTER SPECIFIED           10850000
         DC    X'00000000'             EOF ADDRESS                      10900000
         DC    AL4(&BUFF)              IOAREA2/1 ADDRESS                10950000
         DC    AL4(&BLKS)              BLOCK SIZE                       11000000
         AIF   ('&ADDRESS' EQ 'DUAL').E1                                11050000
         DC    AL2(&SIZE)              BLOCKING FACTOR/NO. OF BUFFERS S 11100000
         AGO   .E2                                                      11150000
.E1      DC    AL2(&SIZE-2)       BLOCKING FACTOR/BUFFERS  (DUAL)   3-3 11200000
.E2      DC    AL2(&BLKS*&SIZE)        I/O AREA SIZE                    11250000
         DC    AL4(&REC)               RECORD LENGTH                    11300000
IJU2&SYSNDX DC X'0000000000'           SENSE INDICATORS                 11350000
        DC    X'01'                   SUPERVISOR SWITCH                 11400000
         DC    AL1(&SECLAS)            SECONDARY CLASS NUMBER           11450000
         DC    AL1(&SECNUM)            SECONDARY UNIT  NUMBER           11500000
         DC    X'0000'                 REGISTER  BYTES ALLIGNMENT       11550000
         DC    AL1(&CLASS)             PRIMARY CLASS NUMBER             11600000
         DC    AL1(&NUM)               PRIMARY UNIT NUMBER              11650000
         DC    AL4(&BLKS)              BUFFER SIZE                      11700000
         DC    X'4C'                   OP CODE                          11750000
         DC    AL3(&BUFF+&BLKS-1)      LAST BYTE OF FIRST BUFFER        11800000
         DC    X'4C'                   OP CODE                          11850000
         DC    AL3(&BUFF+(&BLKS*&SIZE)-1)  LAST BYTE OF LAST BUFFER     11900000
         DC    AL4(&EXT)               EXTERNAL INTERRUPT ADDRESS       11950000
         DC    AL4(IJU4&SYSNDX)        STACKER SELECT CCW ADDRESS       12000000
         DC    AL4(&BUFF+(&BLKS*&SIZE)-&BLKS)       CURRENT BUF AD. PTR 12050000
         DC    X'00000000'             SUPERVISOR COUNT BUCKET          12100000
         DC    AL2(&SIZE-7)   NUMBER OF BUFFERS-7                   3-3 12150000
         DC    AL2(0)         MESSAGE INDICATOR                     3-3 12200000
         DC    AL4(&ERR)               ERROPT ROUTINE ADDRESS           12250000
         DC    AL1(&SECLAS)            SECONDARY CLASS NUMBER           12300000
         DC    AL1(&SECNUM)            SECONDARY UNIT NUMBER            12350000
         DC    CL2'2'                  RESERVED                         12400000
         DC    AL4(&BUFF+(&BLKS*&SIZE)-&BLKS) LAST BUFFER TO USER       12450000
         DC    AL4(&BUFF+(&BLKS*&SIZE)-&BLKS) FIRST BYTE OF LAST BUFFER 12500000
         DC    X'0000000000000000'     CSW SAVE AREA                    12550000
         DC    AL4(&BUFF+(&BLKS*&SIZE)-&BLKS) ADDR. OF ACTIVE GET RECRD 12600000
         DC    AL4(0)                  COUNTER BUCKET FOR GET           12650000
         DC    CL12'0'                 RESERVED                         12700000
         AIF   ('&ADDRESS' EQ '').SKIP28                                12750000
         AIF   ('&ADDRESS' EQ 'DUAL').SKIP29                            12800000
.SKIP28  ANOP                                                           12850000
IJU1&SYSNDX CCW X'EF',&BUFF,X'60',1              ENGAGE FOR SINGLE      12900000
         CCW   X'4C',&BUFF+&BLKS-1,X'60',&REC    READ                   12950000
         CCW   X'04',IJU2&SYSNDX,X'20',2         SENSE                  13000000
         CCW   X'03',*,X'60',1                   NOP                    13050000
IJU4&SYSNDX CCW X'00',*,X'60',1                  STACKER SELECT         13100000
         CCW   X'08',*,X'60',1                   TIC                    13150000
         CCW   X'FF',*,X'60',1                   CONTROL                13200000
         CCW   X'CF',*,X'60',1                   BN                     13250000
         CCW   X'4C',&BUFF+&BLKS-1,X'60',&REC    READ                   13300000
         CCW   X'04',IJU2&SYSNDX,X'20',2         SENSE                  13350000
         CCW   X'DF',*,X'20',1                   DISENGAGE              13400000
         AGO   .SKIP30                                                  13450000
.SKIP29  ANOP                                                           13500000
IJU1&SYSNDX CCW X'EF',&BUFF,X'60',1              ENGAGE FOR DUAL        13550000
         CCW   X'4C',&BUFF+&BLKS-1,X'60',&REC    READ 1 (BUFFER1)       13600000
         CCW   X'04',IJU2&SYSNDX,X'60',2         SENSE                  13650000
IJU3&SYSNDX CCW X'03',*,X'60',1                  NOP                    13700000
         CCW   X'4C',&BUFF+&BLKS+&BLKS-1,X'60',&REC  READ2              13750000
         AIF   ('&SORTMDE' EQ 'OFF').B3                                 13800000
         CCW   X'24',IJU2&SYSNDX+2,X'60',2       MODIFIED SENSE         13850000
         AGO   .B4                                                      13900000
.B3      CCW   X'04',IJU2&SYSNDX+2,X'60',2       SENSE                  13950000
.B4      CCW   X'4C',*,X'60',&REC                READ1                  14000000
         AIF   ('&SORTMDE' EQ 'OFF').B5                                 14050000
         CCW   X'24',IJU2&SYSNDX,X'60',2         MODIFIED SENSE         14100000
         AGO   .B6                                                      14150000
.B5      CCW   X'04',IJU2&SYSNDX,X'60',2         SENSE                  14200000
.B6      CCW   X'08',IJU3&SYSNDX,X'60',1         TIC TO NOP             14250000
         CCW   X'03',*,X'60',1                   NOP                    14300000
IJU4&SYSNDX CCW X'E7',*,X'60',1                  MODIFIED CONTROL       14350000
            CCW X'00',*,X'60',1                  STACKER SELECT         14400000
         AIF   ('&SORTMDE' EQ 'OFF').B7                                 14450000
         CCW   X'24',IJU2&SYSNDX+4,X'20',1       MODIFIED SENSE         14500000
         AGO   .SKIP30                                                  14550000
.B7      CCW   X'04',IJU2&SYSNDX+4,X'20',1       SENSE                  14600000
.SKIP30  ANOP                                                           14650000
         MEND                                                           14700000
