         MACRO                                                          00050000
&NAME    DTFOR                                                         A00100000
               &IOAREA1=,                                              C00150000
               &TYPEFLE=INPUT,                                         B00200000
               &EOFADDR=,                                              D00250000
               &HEADER=,                                               E00300000
               &DEVADDR=,                                              F00350000
               &CONTROL=,                                              G00400000
               &COREXIT=,                                              H00450000
               &RECFORM=,                                              I00500000
               &RECSIZE=,                                              K00550000
               &IOAREA2=,                                              K00600000
               &IOREG=,                                                L00650000
               &WORKA=,                                                M00700000
               &BLKSIZE=,                                              N00750000
               &DEVICE=,                                               O00800000
               &MODNAME=,                                              P00850000
               &BLKFAC=,                                               Q00900000
               &HPRMTY=,                                               R00950000
               &SEPASMB=                                                01000000
         LCLA  &AL1,&AL2,&AL3,&AL4,&AL5,&AL6,&RECS,&IOR,&BLKS,&TYP  3-2 01050000
         LCLC  &CL1,&IOA1,&EOFA,&COREX,&MOD,&IOA2                       01100000
         LCLC  &UF,&ZC,&ZIWB,&ZR,&DT                                    01150000
         LCLC  &UB,&UF1,&RECFM                                          01200000
         LCLA  &BLKF,&BLKS1,&RECS1,&DV,&HPR                         3-1 01250000
.* IBM DISK OPERATING SYSTEM                                   @DC28702 01300000
* 5745-SC-OCR DTFOR RELEASE 28.0                               @DC28702 01350000
*                                                                       01400000
* COPYRIGHT = THIS MACRO IS "RESTRICTED MATERIALS OF IBM"     *@D41TDKY 01450000
*             5686-007 (C) COPYRIGHT IBM CORP. 1974, 1988     *@D41TDKY 01500000
*             ALL RIGHTS RESERVED                             *@D41TDKY 01550000
*             LICENSED MATERIALS-PROPERTY OF IBM              *@D41TDKY 01600000
.*            SEE COPYRIGHT INSTRUCTIONS, G120-2083           *@D41TDKY 01650000
*                                                                       01700000
&AL1     SETA  64                                                       01750000
&DV      SETA  118                                                      01800000
&AL5     SETA  79                                                   3-2 01850000
&AL6     SETA  55                                                   3-2 01900000
         AIF   (T'&IOAREA1 NE 'O').F2                                   01950000
         MNOTE 0,'IOAREA1 NOT SPECIFIED. SET TO *'                      02000000
&IOA1    SETC  '*'                                                      02050000
         AGO   .F2A                                                     02100000
.F2      ANOP                                                           02150000
&IOA1    SETC  '&IOAREA1'                                               02200000
.F2A     AIF   (T'&EOFADDR NE 'O').F3                                   02250000
         MNOTE 0,'EOFADDR NOT SPECIFIED. SET TO *'                      02300000
&EOFA    SETC  '*'                                                      02350000
         AGO   .F3A                                                     02400000
.F3      ANOP                                                           02450000
&EOFA    SETC  '&EOFADDR'                                               02500000
.F3A     ANOP                                                           02550000
&TYP     SETA  9                                                        02600000
         AIF   (T'&HEADER EQ 'O').F4A                                   02650000
         AIF   ('&HEADER' EQ 'YES').F3A1                                02700000
         MNOTE 0,'INVALID HEADER. ASSUME YES'                           02750000
.F3A1    ANOP                                                           02800000
&TYP     SETA  10                                                       02850000
&AL1     SETA  &AL1+8                                                   02900000
.F4A     AIF   (T'&DEVADDR EQ 'O').F5                                   02950000
         AIF   (K'&DEVADDR NE 6).F5                                     03000000
         AIF   ('&DEVADDR'(1,3) NE 'SYS').F5                            03050000
&CL1     SETC  '&DEVADDR'(4,3)                                          03100000
         AIF   ('&CL1' LT '000' OR '&CL1' GT '244').F5                  03150000
         AIF   ('&CL1'(2,1) LT '0' OR 'CL1'(2,1) GT '9').F5             03200000
         AIF   ('&CL1'(3,1) LT '0' OR 'CL1'(3,1) GT '9').F5             03250000
&AL2     SETA  1                                                        03300000
&AL3     SETA  &CL1                                                     03350000
         AGO   .F5A                                                     03400000
.F5      MNOTE 0,'INVALID OR MISSING DEVADDR. @@FFFF@@ GENERATED'       03450000
&AL2     SETA  255                                                      03500000
&AL3     SETA  255                                                      03550000
.F5A     AIF   ('&CONTROL' EQ 'YES').F6                                 03600000
&ZC      SETC  'Z'                                                      03650000
         AIF   (T'&CONTROL EQ 'O').F6A                                  03700000
         MNOTE 0,'INVALID CONTROL. ASSUME YES'                          03750000
.F6      ANOP                                                           03800000
&ZC      SETC  'C'                                                      03850000
&AL1     SETA  &AL1+32                                                  03900000
.F6A     AIF   (T'&COREXIT NE 'O').F7                                   03950000
         MNOTE 0,'COREXIT NOT SPECIFIED. SET TO *'                      04000000
&COREX   SETC  '*'                                                      04050000
         AGO   .F7A                                                     04100000
.F7      ANOP                                                           04150000
&COREX   SETC  '&COREXIT'                                               04200000
.F7A     ANOP                                                           04250000
&UF      SETC  'F'                                                      04300000
&UF1     SETC  'F'                                                      04350000
&ZIWB    SETC  'Z'                                                      04400000
&DT      SETC  'T'                                                      04450000
&ZR      SETC  'Z'                                                      04500000
&IOA2    SETC  '*'                                                      04550000
&AL4     SETA  &AL4+128                                                 04600000
&UB      SETC  'U'                                                      04650000
&RECFM   SETC  'FIXUNB'                                                 04700000
         AIF   (T'&RECFORM EQ 'O').F8A                                  04750000
         AIF   ('&RECFORM' EQ 'UNDBLK').F8                              04800000
         AIF   ('&RECFORM' NE 'UNDEF').F7AA1                            04850000
         AIF   (T'&BLKFAC EQ 'O').F7AA1                                 04900000
&RECFM   SETC  'UNDBLK'                                                 04950000
         AGO   .F7AA2                                                   05000000
.F7AA1   ANOP                                                           05050000
&RECFM   SETC  '&RECFORM'                                               05100000
.F7AA2   ANOP                                                           05150000
         AIF   ('&DEVICE' EQ '1287D').F7A1                              05200000
         AIF   ('&RECFM' EQ 'UNDBLK').F8BA1                             05250000
.F7A1    ANOP                                                           05300000
         AIF   (T'&BLKFAC EQ 'O').F8A1                                  05350000
         MNOTE 0,'INVALID BLKFAC. IGNORE'                               05400000
.F8A1    ANOP                                                           05450000
         AIF   ('&RECFM' EQ 'FIXUNB').F8A                               05500000
         AIF   ('&RECFM' EQ 'UNDEF').F8B                                05550000
         AIF   ('&DEVICE' EQ '1287D').F8                                05600000
         AIF   ('&RECFM' EQ 'FIXBLK').F8A1A                             05650000
.F8      MNOTE 0,'INVALID RECFORM. ASSUME FIXUNB'                       05700000
&RECFM   SETC  'FIXUNB'                                                 05750000
         AGO   .F8A                                                     05800000
.F8A1A   ANOP                                                           05850000
&RECFM   SETC  'FIXBLK'                                                 05900000
&UF1     SETC  'X'                                                      05950000
&AL5     SETA  95                                                   3-2 06000000
&AL6     SETA  71                                                   3-2 06050000
.F8A     ANOP                                                           06100000
&AL4     SETA  16                                                       06150000
.F8A2    AIF   (T'&IOAREA2 EQ 'O').F8A4                             3-1 06200000
         AIF   ('&DEVICE' NE '1287D').F8A1B                             06250000
         MNOTE 0,'INVALID IOAREA2. IGNORE'                              06300000
         AGO   .F8A4                                                    06350000
.F8A1B   ANOP                                                           06400000
&ZIWB    SETC  'I'                                                      06450000
&AL4     SETA  &AL4+64                                                  06500000
&IOA2    SETC  '&IOAREA2'                                               06550000
.F8A4F   AIF   (T'&IOREG EQ 'O').F8A5                                   06600000
         AIF   (T'&IOREG(1) NE 'N').F8A6                                06650000
         AIF   ('&IOREG(1)' LT '2' OR '&IOREG(1)' GT '12').F8A6         06700000
         AIF   (T'&WORKA EQ 'O').F8A4B                                  06750000
         AGO   .F8A7D                                                   06800000
.F8A4    AIF   (T'&IOREG EQ 'O').F8A7                                   06850000
         AIF   ('&RECFM' EQ 'FIXBLK').F8A4F                             06900000
         AIF   ('&UF' EQ 'F').F8A4C                                     06950000
         AIF   (T'&WORKA EQ 'O').F8A4B                                  07000000
         AGO   .F8A4F                                                   07050000
.F8A4C   MNOTE 0,'IMPROPER IOREG. IGNORE'                           3-6 07100000
         AGO   .F8A7                                                    07150000
.F8A4A   MNOTE 0,'IMPROPER IOREG. IGNORE'                               07200000
         AGO   .F8A7C                                                   07250000
.F8A4B   ANOP                                                           07300000
&IOR     SETA  &IOREG(1)                                                07350000
         AGO   .F9                                                      07400000
.F8A5    AIF   (T'&WORKA NE 'O').F8A8                                   07450000
         MNOTE 0,'NO IOREG OR WORKA FOR 2 IOAREA FILE. ASSUME IOREG 2'  07500000
&IOR     SETA  2                                                        07550000
         AGO   .F9                                                      07600000
.F8A6    AIF   ('&UF' EQ 'U').F8A6A                                     07650000
         AIF   (T'&WORKA NE 'O').F8A7D                                  07700000
         MNOTE 0,'INVALID IOREG. ASSUME 2'                              07750000
&IOR     SETA  2                                                        07800000
&IOR     SETA  3                                                        07850000
         AGO   .F9                                                      07900000
.F8A6A   AIF   (T'&WORKA NE 'O').F8A4A                                  07950000
         MNOTE 0,'INVALID IOREG. ASSUME 2'                              08000000
&IOR     SETA  2                                                        08050000
         AGO   .F9                                                      08100000
.F8A7    AIF   (T'&WORKA EQ 'O').F8A7F                                  08150000
.F8A7C   AIF   ('&WORKA' EQ 'YES').F8A7A                                08200000
         MNOTE 0,'INVALID WORKA. ASSUME YES'                            08250000
.F8A7A   ANOP                                                           08300000
&AL4     SETA  &AL4+32                                                  08350000
&ZIWB    SETC  'W'                                                      08400000
         AGO   .F9                                                      08450000
.F8A7D   MNOTE 0,'IOREG AND WORKA SPECIFIED. ASSUMED WORK'              08500000
.F8A8    AIF   ('&WORKA' EQ 'YES').F8A8A                                08550000
         MNOTE 0,'INVALID WORKA. ASSUME YES'                            08600000
.F8A8A   AIF   ('&ZIWB' EQ 'Z').F8A7A                               3-6 08650000
&AL4     SETA  &AL4+32                                                  08700000
&ZIWB    SETC  'B'                                                      08750000
         AGO   .F9                                                      08800000
.F8A7F   AIF   ('&RECFM' EQ 'FIXBLK').F8A7G                             08850000
         AIF   ('&RECFM' NE 'UNDBLK').F9                                08900000
.F8A7G   MNOTE 0,'NO IOREG OR WORKA FOR BLKD FILE,ASSUME IOREG 2'   3-7 08950000
&IOR     SETA  2                                                        09000000
         AGO   .F9                                                      09050000
.F8B     ANOP                                                           09100000
&RECFM   SETC  'UNDEF'                                                  09150000
         AIF   ('&DEVICE' NE '1287D').F8BA2                         3-1 09200000
         AIF   (T'&IOREG EQ 'O').F8BA2                              3-1 09250000
         MNOTE 0,'IOREG NOT USED FOR 1287D WHEN RECFORM=UNDEF'      3-1 09300000
         AGO   .F8BA2                                                   09350000
.F8BA1   ANOP                                                           09400000
&RECFM   SETC  'UNDBLK'                                                 09450000
.F8BA2   ANOP                                                           09500000
&AL4     SETA  8                                                        09550000
&UF      SETC  'U'                                                      09600000
&UF1     SETC  'U'                                                      09650000
         AIF   ('&RECFM' NE 'UNDBLK').F8BA                              09700000
&UF1     SETC  'D'                                                      09750000
.F8BA    AIF   (T'&RECSIZE EQ 'O').F8B1                                 09800000
         AIF   (T'&RECSIZE(1) NE 'N').F8B1                              09850000
         AIF   ('&RECSIZE(1)' LT '2' OR '&RECSIZE(1)' GT '12').F8B1     09900000
&RECS    SETA  &RECSIZE(1)                                              09950000
         AGO   .F8B2                                                    10000000
.F8B1    MNOTE 0,'INVALID OR MISSING RECSIZE. ASSUME REG 3'             10050000
&RECS    SETA  3                                                        10100000
.F8B2    AGO   .F8A2                                                    10150000
.F9      AIF   ('&RECFM' EQ 'FIXBLK').F8C                               10200000
         AIF   ('&RECFM' EQ 'UNDBLK').F8C                               10250000
         AIF   (T'&BLKSIZE EQ 'O').F9A                                  10300000
         AIF   (T'&BLKSIZE NE 'N').F9A                                  10350000
&BLKS    SETA  &BLKSIZE                                                 10400000
         AGO   .F10                                                     10450000
.F9A     MNOTE 0,'INVALID OR MISSING BLKSIZE. ASSUME 38'                10500000
&BLKS    SETA  38                                                       10550000
         AGO   .F10                                                     10600000
.F8C     ANOP                                                           10650000
&UB      SETC  'B'                                                      10700000
         AIF   (T'&BLKSIZE EQ 'O').F8C5A                                10750000
         AIF    (T'&BLKSIZE NE 'N').F8C5A                               10800000
&BLKS    SETA  &BLKSIZE                                                 10850000
         AGO   .F8C5B                                                   10900000
.F8C5A   MNOTE 0,'INVALID OR MISSING BLKSIZE. ASSUMED 38'           3-6 10950000
&BLKS    SETA  38                                                       11000000
.F8C5B   AIF   ('&RECFM' EQ 'FIXBLK').F8C5G                         3-6 11050000
         AIF   (T'&BLKFAC NE 'O').F8C5I                                 11100000
.F8C5H   MNOTE 0,'INVALID OR MISSING BLKFAC. ASSUME 1'              3-6 11150000
&BLKF    SETA  1                                                        11200000
         AGO   .F10                                                     11250000
.F8C5I   AIF   (T'&BLKFAC NE 'N').F8C5H                                 11300000
         AIF   (&BLKS-(&BLKS/&BLKFAC)*&BLKFAC NE 0).F8C5H               11350000
&BLKF    SETA  &BLKFAC                                                  11400000
         AGO   .F10                                                     11450000
.F8C5G   AIF   (T'&RECSIZE EQ 'O').F8C5C                                11500000
         AIF   ('&RECSIZE' LE '38').F8C5F                               11550000
         MNOTE 0,'RECSIZE TOO LARGE. ASSUMED 38'                        11600000
.F8C5F   AIF   (&BLKS-(&BLKS/&RECSIZE)*&RECSIZE EQ 0).F8C5E         3-7 11650000
         MNOTE 0,'BLKSIZE NOT MULTIPLE OF RECSIZE'                      11700000
         AGO   .F8C5D                                                   11750000
.F8C5C   ANOP                                                           11800000
         MNOTE 0,'RECSIZE MISSING. SET TO BLKSIZE'                      11850000
.F8C5D   ANOP                                                           11900000
&RECS    SETA  &BLKS                                                3-6 11950000
         AGO   .F10                                                     12000000
.F8C5E   ANOP                                                           12050000
&RECS    SETA  &RECSIZE                                                 12100000
.F10     AIF   (T'&DEVICE EQ 'O').F10A                                  12150000
         AIF   ('&DEVICE' EQ '1285').F10B                               12200000
         AIF   ('&DEVICE' EQ '1287T').F10B                              12250000
         AIF   ('&DEVICE' NE '1287D').F10A                              12300000
&DT      SETC  'D'                                                      12350000
         AGO   .F10B                                                    12400000
.F10A    MNOTE 0,'INVALID OR MISSING DEVICE. ASSUME 1285'               12450000
.F10B    ANOP                                                           12500000
&AL1     SETA  &AL1+16                                                  12550000
&AL1     SETA  &AL1+2                                                   12600000
         AIF   ('&DEVICE' EQ '1285').F11                            3-1 12650000
&DV      SETA  119                                                  3-1 12700000
.F11     AIF   (T'&MODNAME EQ 'O').F11A                                 12750000
&MOD     SETC  '&MODNAME'                                               12800000
         AGO   .F11B                                                3-1 12850000
.F11A    ANOP                                                           12900000
&MOD     SETC  'IJM&UF1&ZC&ZIWB&DT&ZR'                                  12950000
.F11B    AIF   (T'&HPRMTY EQ 'O').F12                               3-1 13000000
&HPR     SETA  1                                                    3-1 13050000
.F12     AIF   (T'&SEPASMB EQ 'O').F12B                                 13100000
         AIF   ('&SEPASMB' EQ 'YES').F12A                               13150000
         MNOTE 0,'INVALID SEPASMB. ASSUME YES'                          13200000
.F12A    AIF   (T'&NAME NE 'O').F12D                                    13250000
         AGO   .F12C                                                    13300000
.F12B    AIF   (T'&NAME NE 'O').F13                                     13350000
.F12C    MNOTE 0,'NO FILENAME SPECIFIED. GENERATION TERMINATED'         13400000
         MEXIT                                                          13450000
.F12D    PUNCH '    CATALR &NAME,3.7'                               3-7 13500000
&NAME.C  CSECT                                                          13550000
         ENTRY &NAME                                                    13600000
.F13     ANOP                                                           13650000
         DS    0D                                                       13700000
&NAME    DC    X'000000000000'         RC, TI, CSWSB                    13750000
         DC    AL1(&AL2)               SYM                              13800000
         DC    AL1(&AL3)                   UNIT ADDR                    13850000
         DC    X'00'                                                    13900000
         DC    AL3(*+&AL5)                                          3-2 13950000
         DC    X'00'                                                    14000000
         DC    AL3(*)                  CCW ADDR IN CSW                  14050000
         DC    X'00'                                                    14100000
         DC    VL3(&MOD)               ADDR OF LOGICAL MODULE           14150000
         DC    AL1(&TYP)               DTF TYPE FOR 1285 AND 1287T      14200000
         DC    AL1(&AL1)               PIOCS SWITCHES                   14250000
         DC    AL1(&DV)      DEVICE TYPE                                14300000
         DC    AL1(&HPR)                SWITCH                      3-1 14350000
         DC    X'000080000000'         RC,TI,CSWSB                      14400000
         DC    AL1(&AL2)               SYM                              14450000
         DC    AL1(&AL3)                   UNIT ADDR                    14500000
         DC    X'00'                                                    14550000
         DC    AL3(*+&AL6)                                          3-2 14600000
         DC    X'20'                                                    14650000
         DC    AL3(*)                  CCW ADDR IN CSW                  14700000
         CCW   X'04',*+94,X'00',2                                       14750000
         DC    X'00000000'             EQUIP CHECKS                 3-1 14800000
         DC    X'00000000'             AFTER 10 RETRIES                 14850000
         DC    X'00000000'             WRONG LENGTH RECORDS             14900000
         DC    X'00000000'             AFTER 10 RETRIES                 14950000
         DC    X'00000000'             KEYBOARD CORRECTIONS             15000000
         DC    X'00000000'             DATA CHECKS                      15050000
         DC    X'00000000'             LINES MARKED                     15100000
         DC    X'00000000'             TOTAL LINES READ                 15150000
         DC    X'00'                   ERROR INDICATORS                 15200000
         DC    AL1(&AL4)               LIOCS SWITCHES                   15250000
         DC    X'0C'                   NORMAL COMMAND CODE              15300000
         DC    X'02'                   CONTROL COMMAND CODE             15350000
         DC    AL1(1)                                                   15400000
         DC    AL3(&IOA2)              IOAREA2 ADDR                     15450000
         AIF   ('&UB' EQ 'B').F141                                      15500000
         AIF   ('&UF' EQ 'F').F131                                      15550000
         CCW   X'0C',&IOA1+&BLKS-1,X'60',&BLKS                          15600000
         AGO   .F132                                                    15650000
.F141    DC    A(*+48)                 IOAREA1 CCW CHAIN ADDR           15700000
         AIF   ('&IOA2' EQ '*').F142                                    15750000
         AIF   ('&UF' EQ 'U').F141A                                     15800000
         DC    A((*+44)+(16*&BLKS/&RECS))   IOAREA2 CCW CHAIN           15850000
         AGO   .F143                                                    15900000
.F141A   DC    A((*+44)+(16*&BLKF))    IOAREA2 CCW CHAIN                15950000
         AGO   .F143                                                    16000000
.F142    DC    XL4'00'                                                  16050000
.F143    AIF   ('&RECFM' EQ 'FIXBLK').F143A                             16100000
         DC    AL2(&BLKF)    BLOCKING FACTOR                            16150000
         DC    AL2(&BLKS/&BLKF)        RECORD SIZE                      16200000
         AGO   .F143B                                                   16250000
.F143A   DC    AL2(&BLKS/&RECS)        BLOCKING FACTOR                  16300000
         DC    AL2(&RECS)    RECORD SIZE                                16350000
.F143B   DC    XL4'00'                                                  16400000
         AGO   .F133                                                    16450000
.F131    CCW   X'0C',&IOA1+&BLKS-1,X'40',&BLKS                          16500000
.F132    CCW   X'13',&IOA1,X'00',1                                      16550000
.F133    CCW   X'02',&IOA1,X'00',&BLKS                                  16600000
         DC    A(&EOFA)                EOF ADDR                         16650000
         DC    A(&COREX)               CORRECTION EXIT                  16700000
         DC    A(&IOA1)                IOAREA1 ADDR                     16750000
         DC    A(&BLKS-1)                                               16800000
         AIF   ('&UF' EQ 'F').F13A                                      16850000
         SR    13,&RECS                                                 16900000
         LR    &RECS,13                                                 16950000
         LR    &IOR,13                                                  17000000
         AGO   .F13C                                                    17050000
.F13A    AIF   ('&ZIWB' EQ 'I').F13B                                    17100000
         AIF   ('&ZIWB' EQ 'B').F13B                                    17150000
         AIF   ('&UB' EQ 'B').F13B                                      17200000
         DC    6X'00'                                                   17250000
         AGO   .F13C                                                    17300000
.F13B    DC    4X'00'                                                   17350000
         LR    &IOR,13                                                  17400000
.F13C    DC    2X'00'                  SENSE                            17450000
         AIF   ('&UB' NE 'B').DONE                                      17500000
&BLKS1   SETA  &BLKS                                                    17550000
         AIF   ('&RECFM' EQ 'FIXBLK').CCW1                              17600000
&RECS1   SETA  &BLKS1/&BLKF                                         3-6 17650000
         AIF   ('&BLKS1' EQ '&RECS1').F143E                             17700000
.F143C   CCW   X'0C',&IOA1+&BLKS-1,X'60',&RECS1                     3-6 17750000
         CCW   X'13',&IOA1,X'40',1                                      17800000
&BLKS    SETA  &BLKS-(&BLKS1/&BLKF)                                     17850000
         AIF   (&BLKS-(&BLKS1/&BLKF) NE 0).F143C                        17900000
.F143E   CCW   X'0C',&IOA1+&BLKS-1,X'60',&RECS1                     3-6 17950000
         CCW   X'13',&IOA1,X'00',1                                      18000000
         AIF   ('&IOA2' EQ '*').DONE                                    18050000
&BLKS    SETA  &BLKS1                                                   18100000
         AIF   ('&BLKS1' EQ '&RECS1').F143F                             18150000
.F143D   CCW   X'0C',&IOA2+&BLKS-1,X'60',&RECS1                     3-6 18200000
         CCW   X'13',&IOA2,X'40',1                                      18250000
&BLKS    SETA  &BLKS-(&BLKS1/&BLKF)                                     18300000
         AIF   (&BLKS-(&BLKS1/&BLKF) NE 0).F143D                        18350000
.F143F   CCW   X'0C',&IOA2+&BLKS-1,X'60',&RECS1                     3-6 18400000
         CCW   X'13',&IOA2,X'00',1                                      18450000
         AGO   .DONE                                                    18500000