         MACRO                                                 @D35ZDKR 00010001
&NAME    DTSVECTB &DSECT=NO                                    @D35ZDKR 00020001
         AGO   .ZZZ107                                         @D31BDHB 00030001
*        LICENSED MATERIALS - PROPERTY OF IBM                  @D31BDHB 00040001
*        "RESTRICTED MATERIALS OF IBM"                         @D31BDHB 00050002
*        5686-036 (C) COPYRIGHT IBM CORP. 1977, 2001                    00060001
*        SEE COPYRIGHT INSTRUCTIONS                            @D31BDHB 00070001
.ZZZ107  ANOP  ,                                               @D31BDHB 00080001
         AGO   .CIBMVEC                                        @D368DUL 00090001
************************************************************** @D368DUL 00100001
*                                                            * @D368DUL 00110001
.*      IBM DISK OPERATING SYSTEM                            * @D368DUL 00120001
*       SUPERVISOR - DTSVECTB - 5686-007-06-C44              * @D14NDHB 00130001
         SPACE 5                                               @D368DUL 00140001
.CIBMVEC ANOP                                                  @D368DUL 00150001
************************************************************** @D35ZDKR 00160001
*                                                            * @D35ZDKR 00170001
*                                                            * @D35ZDKR 00180001
*    MACRO NAME = DTSVECTB                                   * @D35ZDKR 00190001
*                                                            * @D35ZDKR 00200001
*    DESCRIPTIVE NAME = ICCF COMMUNICATION VECTOR TABLE      * @D35ZDKR 00210001
*                                                            * @D35ZDKR 00220001
*    FUNCTION =                                              * @D35ZDKR 00230001
*      THE ICCF VECTOR TABLE SERVES AS COMMUNICATION AREA    * @D35ZDKR 00240001
*      BETWEEN ICCF AND THE SUPERVISOR.                      * @D35ZDKR 00250001
*                                                            * @D35ZDKR 00260001
*      THE MACRO ALLOWS TO GENERATE THE VECTOR TABLE OR      * @D35ZDKR 00270001
*      OPTIONALLY THE DSECT FOR THE VECTOR TABLE.            * @D35ZDKR 00280001
*                                                            * @D35ZDKR 00290001
*      CONTENTS =                                            * @D35ZDKR 00300001
*        ENTRY POINT ADRESSES INTO ICCF BUILT AT ICCF INITI- * @D35ZDKR 00310001
*          ALIZATION TIME                                    * @D35ZDKR 00320001
*        INTERRUPT INFORMATION BUILT BY THE SUPERVISOR INTER-* @D35ZDKR 00330001
*          RUPT HANDLERS                                     * @D35ZDKR 00340001
*                                                            * @D35ZDKR 00350001
************************************************************** @D35ZDKR 00360001
         AIF   ('&DSECT' NE 'YES').NODSECT                     @D35ZDKR 00370001
.*       DSECT GENERATION                                      @D35ZDKR 00380001
         AIF   (T'&NAME EQ 'O').NONAME                         @D35ZDKR 00390001
&NAME    DSECT ,                       ICCF VECTOR TABLE       @D35ZDKR 00400001
         AGO   .NAME                                           @D35ZDKR 00410001
.NONAME  ANOP                                                  @D35ZDKR 00420001
DTSVECDS DSECT ,                       ICCF VECTOR TABLE       @D35ZDKR 00430001
.NAME    ANOP                                                  @D35ZDKR 00440001
DTSVECB  DS    0F                      BEGIN OF VECTOR TABLE   @D35ZDKR 00450001
DTSOCAP  DS    F                       ICCF OC ROUTINE         @D35ZDKR 00460001
DTSSVCAP DS    F                       ICCF SVC APPENDAGE RTN. @D35ZDKR 00470001
DTSINSVC EQU   DTSSVCAP                ICCF INTERNAL SVC RTN.  @D35ZDKR 00480001
DTSMCAP  DS    F                       ICCF MC APPENDAGE RTN.  @D35ZDKR 00490001
DTSMCSA  DS    F                       ADDR.OF ICCF MCSA       @D35ZDKR 00500001
DTSCUSA  DS    F                       ADDR. OF CURRENT SA     @D35ZDKR 00510001
DTSSVCPB DS    F                       2ND LEVEL SVC INTERCEPT @D35ZDUL 00520001
DTSSVCPE DS    F                       ADDR RANGE FOR PGM CHK  @D35ZDUL 00530001
DTSSVCC  DS    H                       SVC INTERRUPT CODE      @D35ZDKR 00540001
DTSMVSSC DS    H                       MVS SVC 131 INTRPT CODE @D61CDHH 00550001
DTSMCC   DS    H                       MC INTERRUPT CODE       @D35ZDKR 00560001
DTSHTID  DS    H                       TID OF HIGH PRIORITY    @D36ZDUL 00570001
*                                      TASK                    @D35ZDKR 00580001
DTSITPIK DS    H                       ICCF-PIK AT INIT. OR    @D36ZDUL 00590001
*                                      TERM.TIME               @D35ZDKR 00600001
DTSINT1  DS    H                       NOT USED                @D61CDHH 00610001
DTSINT2  DS    F                       NOT USED                @D61CDHH 00620001
DTSMSGEX DS    F                       ADDR OF MSG EXIT ROUTINE@D61CDHH 00630001
DTSECB   DS    F                       SUPVR-MUST-COMPLETE     @D35ZDKR 00640001
*                                      ECB                     @D35ZDKR 00650001
DTSNPART DS    H                       NO OF INTERACTIVE PARTN @D35ZDUL 00660001
DTSFLAGS DS    0CL2                    ICCF-FLAGS              @D35ZDKR 00670001
DTSFLG1  DS    C                       MORE FLAGS              @D14MDFH 00680001
DTSFLG2  DS    C                       MORE FLAGS              @D35ZDUL 00690001
DTSCANCL EQU   X'80'                   ICCF SUPVR RTN CANCELED @D36ZDUL 00700001
DTSRESVC EQU   X'40'                   SVC IS TO BE REPEATED   @D36ZDUL 00710001
*                                      BY SUPVR - THE ORIGINAL @D36ZDUL 00720001
*                                      SVC CODE IS IN DTSSVCC  @D36ZDUL 00730001
DTSFLGJ  DS    C                       JCL FLAGS               @D35ZDKR 00740001
DTSDUMP  EQU   1                       DUMP OPTION ON/OFF      @D35ZDKR 00750001
DTSLOGJ  EQU   2                       LOG OPTION ON/OFF       @D35ZDKR 00760001
DTSNOFST EQU   4                       FAST-CCW-TR OPTION ON/  @D35ZDKR 00770001
*                                      OFF                     @D35ZDKR 00780001
* +++++++++++++++++++++++++++++++++++++++++++++++++++++++++++  @D31BDHB 00790001
DTSASGTB DS    0H                      DUMMY ASSIGNMENT TABLE  @D31BDHB 00800001
DTSLST   DS    CL2                     SYSLST ASSIGNMENT       @D31BDHB 00810001
DTSLSTN  DS    CL2                     SYSNNN FOR SYSLST ASSG. @D31BDHB 00820001
DTSIPT   DS    CL2                     SYSIPT ASSIGNMENT       @D31BDHB 00830001
DTSIPTN  DS    CL2                     SYSNNN FOR SYSIPT ASSG. @D31BDHB 00840001
DTSPCH   DS    CL2                     SYSPCH ASSIGNMENT       @D31BDHB 00850001
DTSPCHN  DS    CL2                     SYSNNN FOR SYSPCH ASSG. @D31BDHB 00860001
DTSPCHIN DS    CL2                     SYSNNN ASSIGNM.         @D31BDHB 00870001
DTSLOG   DS    CL2                     SYSNNN ASSIGNM.         @D31BDHB 00880001
DTSASGL  EQU   *-DTSASGTB          *                           @D31BDHB 00890001
         ORG   DTSASGTB            SET TO START OF ASSG. TAB   @D31BDHB 00900001
DTSDUM   DS    0CL(DTSASGL)        WHOLE ASSIGNMENT TABLE      @D31BDHB 00910001
         ORG   ,                   SET BACH TO CURRENT         @D31BDHB 00920001
* +++++++++++++++++++++++++++++++++++++++++++++++++++++++++++  @D31BDHB 00930001
DTSPKEY  DS    C                       PSW KEY SAVED BY MC O   @D36ZDUL 00940001
DTSVCUCN DS    H                       RECOVERY COUNT FIELD    @D14NDHB 00950001
*                                                              @D14NDHB 00960001
DTSCNTHA DS    H                       COUNT OF CURRENT ICCF   @D14NDHB 00970001
*                                      SLI LEVELS              @D14NDHB 00980001
         DS    H                       RESERVED                @D31BDHB 00990001
DTSCNTHC DS    H        NOT USED YET   COUNT FIELD             @D14NDHB 01000001
*                                  *                           @D32BDHB 01010001
DTSCNTFA DS    F                       POINTER SUPVR SVC TAB   @D32BDHB 01020001
*                   ==> WILL BE SET AND CLEARED BY ICCF        @D32BDHB 01030001
*                                  *                           @D32BDHB 01040001
DTSVCIGN EQU   0                   ICCF DOES NOT HANDLE SVC    @D32BDHB 01050001
DTSVC    EQU   4                   ICCF WILL HANDLE SVC        @D32BDHB 01060001
DTSVCERR EQU   8                   ILLEGAL SVC FOR IA PART.    @D32BDHB 01070001
*                                  *                           @D32BDHB 01080001
DTSCOMRG DS    F                       COMREG ADDR ICCF PARTN  @D14MDFH 01090001
DTSDISCD EQU   X'01'                   DTSFILE IS DISCONNECTED @D14MDFH 01100001
         DS    CL4                     RESERVED                @D14MDFH 01110001
         DS    0F                  ALLIGN TO FULLWORD          @D31BDHB 01120001
DTS51PWR DS    XL(256/8)              SLI ACTIVE FOR PARTITION @D31BDHB 01130001
*              EACH BIT ON IN THIS STRING REPRESENTS ICCF SLI  @D31BDHB 01140001
*              ACTIVE FOR THIS PARTITION                       @D31BDHB 01150001
*              THE BIT POSITION LOW TO HIGH IS COROSPONDING    @D31BDHB 01160001
*              LOW TO HIGH PIK OF THIS PARTITION               @D31BDHB 01170001
DTSVECE  DS    0F                      END OF TABLE            @D35ZDKR 01180001
         SPACE 1                                               @D35ZDKR 01190001
DTSVEC   EQU   DTSVECE-DTSVECB         DEFINE ENTIRE VECTOR    @D35ZDKR 01200001
*                                      TABLE LENGTH            @D35ZDKR 01210001
*        THE FOLLOWING ADDRESSES ARE USED BY DTSCTRLH TO       @D36ZDUL 01220001
*        EXCHANGE AB AND PC EXIT ROUTINE ADDRESSES IN CASE OF  @D36ZDUL 01230001
*        TASK SWAPPING.  ..... TEMPORARILY ........            @D36ZDUL 01240001
         DS    F                       RESERVED                @D66ODOW 01250002
         DS    H                       RESERVED                @D66ODOW 01260002
         DS    H                       RESERVED                @D66ODOW 01270002
         DS    H                       RESERVED                @D66ODOW 01280002
         DS    H                       RESERVED                @D66ODOW 01290002
         DS    H                       RESERVED                @D66ODOW 01300002
         MEXIT                                                 @D35ZDKR 01310001
.*       TABLE  GENERATION                                     @D35ZDKR 01320001
.NODSECT ANOP                                                  @D35ZDKR 01330001
IDTVECTB DS    0F                      ICCF VECTOR TABLE       @D35ZDKR 01340001
         DC    XL(DTSVEC)'00'          AREA FOR VECTOR TABLE   @D36ZDUL 01350001
*        THE FOLLOWING ADDRESSES ARE USED BY DTSCTRLH TO       @D36ZDUL 01360001
*        EXCHANGE AB AND PC EXIT ROUTINE ADDRESSES IN CASE OF  @D36ZDUL 01370001
*        TASK SWAPPING.  ..... TEMPORARILY ........            @D36ZDUL 01380001
         DC    A(0)                    RESERVED                @D66ODOW 01390002
         DC    AL2(0)                  RESERVED                @D66ODOW 01400002
         DC    AL2(0)                  RESERVED                @D66ODOW 01410002
         DC    AL2(0)                  RESERVED                @D66ODOW 01420002
         DC    AL2(0)                  RESERVED                @D66ODOW 01430002
         DC    AL2(0)                  RESERVED                @D66ODOW 01440002
         MEND                                                  @D35ZDKR 01450001
