         MACRO                                                          00050000
&NAME    DUMP  &RC=                                                     00100000
.*                                                                      00150061
         AGO   .ZZZ                                            @D146DFR 00300000
.*                                                                      00350061
*        LICENSED MATERIALS - PROPERTY OF IBM                           00400061
*        THIS MACRO IS "RESTRICTED MATERIALS OF IBM"                    00450061
*        5686-066 (C) COPYRIGHT IBM CORP 1981,1995                      00500061
*        SEE COPYRIGHT INSTRUCTIONS                                     00550061
.*                                                                      00600061
.ZZZ     ANOP                                                  @D148DFR 00650000
.*                                                                      00675061
.* /* START OF SPECIFICATIONS *********************************@D149DFR 00700000
.*                                                                      00725061
.*01  MODULE-TYPE     =  USER INTERFACE MACRO                  @D149DFR 00750000
.*01  DESCRIPTIVE NAME = DUMP MACRO                            @D149DFR 00800000
.*01  NOTES           =  CHANGE ACTIVITY                       @D149DFR 00850000
.*    RETURN CODE IMPLEMENTATION                               @D149DFR 00900000
.*01  PROCESSOR       =  ASSEMBLER                             @D149DFR 00950000
.*                                                             @DA35261 01000000
.*    CHANGES:                                                 @DA35261 01050000
.*                                                             @DA35261 01100000
.*    DY35261 - MACRO NOT SELFRELOCATABLE.                     @DA35261 01150000
.*    H-ASSEMBLER SUPPLIES MSG WHEN OPTION=REENTRENT           @D61RDOW 01175061
.*    ADAPT TO FAMILY API                                      @D62ADWS 01187500
.*                                                             @DA35261 01200000
.*    END OF SPECICATIONS ************************************/@D149DFR 01250000
         AIF   (T'&RC EQ 'O').NORC                             @D14BDFR 01300000
         AIF   ('&NAME' EQ '').NONAME                          @D14BDFR 01350000
&NAME    DS    0H                                              @D14BDFR 01400000
.NONAME  ANOP                                                  @D14BDFR 01450000
         AIF   ('&RC'(1,1) NE '(').RCVAL                       @D14BDFR 01500000
         AIF   ('&RC'(1,3) EQ '(15)').RCOK                     @D14BDFR 01550000
         LR    15,&RC(1)                                       @D14BDFR 01600000
         AGO   .RCOK                                           @D14BDFR 01650000
.RCVAL   LA    15,&RC                                          @D14BDFR 01700000
.RCOK    ICM   15,8,*                                          @D14BDFR 01750000
         LA    1,IJBD&SYSNDX                                   @D61RDOW 01783361
         ILOAD (1)                                             @D62ADWS 01816600
         LA    14,8(1)                                         @D14BDFR 01850000
         BR    14                                              @D14BDFR 01900000
IJBD&SYSNDX DC CL8'$IJBJCCN'                                   @DA35261 01950000
         MEXIT                                                 @D14BDFR 02000000
.NORC    ANOP                                                  @D14BDFR 02050000
&NAME    LA    1,=CL8'$$BDUMP'                                          02100000
         SVC   2                                                        02150000
         MEND                                                           02200000
