         MACRO                                                          00010000
&NAME    EBSERV &FUNC=                                                  00020084
         LCLA  &FUNCVAL                                                 00030000
         LCLC  &RG                                                      00031026
         LCLC  &SN                                                      00032050
         SPACE 1                                                        00040000
.***************************************************************        00050000
*        SUPERVISOR - EBSERV - 5686-066-06                     *        00060084
         AGO   .ZZZ                                            *        00070000
*        LICENSED MATERIALS - PROPERTY OF IBM                  *        00080000
*        "RESTRICTED MATERIALS OF IBM"                         *        00090084
*        5686-066                                              *        00100084
*        (C) COPYRIGHT IBM CORP. 2000, 2001                    *        00101084
.ZZZ     ANOP                                                  *        00120000
.* /* START OF SPECIFICATIONS **********************************        00130000
.*01  MODULE TYPE      = INTERNAL SERVICE MACRO                *        00140000
.*01  NOTES            = CHANGE ACTIVITY                       *        00160000
.*    NEW MACRO IN VSE 2.5                                     *        00260000
.*    A000000-999999                                           @D65CDOW 00270010
.*02  PROCESSOR        = ASSEMBLER                             *        00280000
.*03  CHANGE ACTIVITY                                          *        00281076
.*    REMOVE PARALLEL LOCK SUPPORT                             @D66ODOW 00282084
.*END OF SPECIFICATIONS       **********************************        00290000
.*                                                                      00300000
&SN      SETC  '&NAME'                                                  00310050
&FUNCVAL SETA  6                 FUNCTION CODE FOR SUSPEND              00363582
***                              ...ESTAEX ENVIRONMENT FOR LE           00363682
         AIF   ('&FUNC' EQ 'SUSPEND').GENCODE                           00364080
&FUNCVAL SETA  7                 FUNCTION CODE FOR RESUME               00365073
***                              ...ESTAEX ENVIRONMENT FOR LE           00365173
         AIF   ('&FUNC' EQ 'RESUME').GENCODE                            00366080
         MNOTE 8,'FUNC SPECIFICATION OMITTED OR INVALID'                00370000
         MEXIT                                                          00380000
.GENCODE ANOP                                                           00390000
&SN      LA    15,&FUNCVAL       FUNCTION CODE                          00440050
         SVC   140               CALL FUNCTION                          00450038
         MEND                                                           00950000
