         MACRO                                                          00050000
&NAME    ENDREQ &RPL=                                                   00100000
* VSAM - ENDREQ - 5745-SC-VSM(G07) - REL.  1.0                          00150000
         AIF   ('&RPL' NE '').OKY                                       00200000
         MNOTE 12,'*** IKQ002 RPL KEYWORD REQUIRED - NOT SPECIFIED'     00250000
         MEXIT                                                          00300000
.OKY     ANOP                                                           00350000
&NAME    DS    0H                                                       00400000
         AIF   ('&RPL'(1,1) EQ '(').RPLR                                00450000
         L     1,=A(&RPL)               LOAD RPL ADDR          @DA4136H 00500000
         AGO   .AREG                                                    00550000
.RPLR    AIF   ('&RPL' EQ '(1)').AREG   IF RPL=(1),SKIP LR INSTRUCTION  00600000
         LR    1,&RPL(1)                LOAD RPL ADDR IN REG.1          00650000
.AREG    LA    0,X'1C'                  INDICATE ENDREQ IN REG          00700000
         L     15,24(1)                 LOAD ACB ADDR FROM RPL          00750000
         L     15,8(15)                 LOAD AM/0 INTERFACE RTN ADDR    00800000
         BALR  14,15                    BRANCH TO INTERFACE ROUTINE     00850000
         MEND                                                           00900000
