         MACRO                                                          00050000
&NAME    EOJ   &RC=                                                     00100000
.*                                                                      00150061
         AGO   .ZZZ                                            @D146DFR 00300000
.*                                                                      00342861
*        LICENSED MATERIALS - PROPERTY OF IBM                           00385661
*        THIS MACRO IS "RESTRICTED MATERIALS OF IBM"                    00428461
*        5686-066 (C) COPYRIGHT IBM CORP. 1981,1995                     00471261
*        SEE COPYRIGHT INSTRUCTIONS                                     00514061
.*                                                                      00556861
.ZZZ     ANOP                                                  @D148DFR 00600000
.*                                                                      00640661
.* /* START OF SPECIFICATIONS *********************************         00681261
.*                                                                      00721861
.*01  MODULE-TYPE      = USER INTERFACE MACRO                           00762461
.*01  DESCRIPTIVE NAME = EOJ MACRO                                      00803061
.*01  NOTES            = CHANGE ACTIVITY                                00843661
.*    RETURN CODE PARAMETER                                             00884261
.*02  PROCESSOR        = ASSEMBLER                                      00924861
.*                                                                      00965461
.*   CHANGES:                                                           01006061
.*                                                                      01046661
.*  MACRO NOT SELFRELOCATABLE.                                 @DA35261 01087261
.*  H-ASSEMBLER MSG WITH OPTION REENTRANT                      @DA43259 01127861
.*                                                                      01168461
.*    END OF SPECICATIONS *************************************         01209061
         AIF   (T'&RC EQ 'O').NORC                             @D14BDFR 01250000
         AIF   ('&RC'(1,1) NE '(').RCVAL                       @D14BDFR 01300000
&NAME    LA    15,0(,&RC(1))                                   @D14BDFR 01350000
         AGO   .RCOK                                           @D14BDFR 01400000
.RCVAL   ANOP                                                  @D14BDFR 01450000
&NAME    LA    15,&RC                                          @D14BDFR 01500000
.RCOK    ANOP                                                  @D14BDFR 01550000
         LA    1,IJBE&SYSNDX                                   @DA43259 01583361
         ILOAD (1)                                             @D62ADWS 01616600
         LA    14,8(1)                                         @D14BDFR 01650000
         BR    14                                              @D14BDFR 01700000
IJBE&SYSNDX DC CL8'$IJBJCCN'                                   @DA35261 01750000
         MEXIT                                                 @D14BDFR 01800000
.NORC    ANOP                                                  @D14BDFR 01850000
&NAME    SVC   14                                                       01900000
         MEND                                                           01950000
