*%/*                                                                    00048300
         MACRO                                                          00096600
&NAME    ETDEF &TYPE=,             INITIAL | ENTRY | SET | FINAL       *00144900
               &AKM=,              Authorization Key Mask              *00193200
               &ARR=,              Associated Recovery Routine Address *00241500
               &ASCMODE=,          PRIMARY | AR                        *00289800
               &ASYNCH=,           YES | NO                        @L2A*00338100
               &CANCEL=,           YES | NO                        @L2A*00386400
               &EAX=,              Extended Authorization index        *00434700
               &EK=,               Entry Key                           *00483000
               &EKM=,              Entry Key Mask                      *00531300
               &ETEADR=,           ENTRY address/name                  *00579600
               &HEADER=,           HEADER address/name                 *00627900
               &NUMETE=,           Number of entries                   *00676200
               &PARM1=,            User parameter 1                    *00724500
               &PARM2=,            User parameter 2                    *00772800
               &PC=,               STACKING | BASIC                    *00821100
               &PKM=,              OR | REPLACE                        *00869400
               &PROGRAM=,          Program name                        *00917700
               &RECORD=,           YES | NO                        @01A*00966000
               &ROUTINE=,          Routine address                     *01014300
               &RAMODE=,           Routine address AMODE           @D2A*01062600
               &SASN=,             OLD | NEW                           *01110900
               &SSWITCH=,          NO | YES  XM Space Switch           *01159200
               &STATE=,            PROBLEM | SUPERVISOR                *01207500
               &RELATED=           Any value                            01255800
         AGO   .SKIP                                                 */ 01304100
*/****  START OF SPECIFICATIONS  *************************************/ 01352400
*/*                                                                  */ 01400700
*/*01*  MACRO NAME = ETDEF                                           */ 01449000
*/*                                                                  */ 01497300
*/*01*  DESCRIPTIVE NAME = Entry Table Definition                    */ 01545600
*/*                                                                  */ 01593900
*/*01*  COPYRIGHT=                                                   */ 01642200
*/*         5685-001                                                 */ 01690500
*/*         THIS MACRO IS "RESTRICTED MATERIALS OF IBM"              */ 01738800
*/*         (C) COPYRIGHT IBM CORP. 1988                             */ 01787100
*/*         LICENSED MATERIALS - PROPERTY OF IBM                     */ 01835400
*/*                                                                  */ 01883700
*/*01*  STATUS =  HBB4430                                        @L2C*/ 01932000
*/*                                                                  */ 01980300
*/*01*  FUNCTION =                                                   */ 02028600
*/*       Define or set entry table entries.                         */ 02076900
*/*       ETDEF will create a FORMAT=1 Entry Table Descriptor        */ 02125200
*/*       or reset lists of entry table descriptors that will        */ 02173500
*/*       be used as input to the Entry Table Create process.        */ 02221800
*/*                                                                  */ 02270100
*/*02*    OPERATION =                                                */ 02318400
*/*         The ETDEF macro parses the keywords according to         */ 02366700
*/*         the TYPE parameter.  It will either initialize or        */ 02415000
*/*         set entries for the entry table entry.                   */ 02463300
*/*                                                                  */ 02511600
*/*         In the event of an error, syntax checking will attempt   */ 02559900
*/*         to continue for the remainder of the input. No data      */ 02608200
*/*         will be generated.                                       */ 02656500
*/*                                                                  */ 02704800
*/*01*  INPUT =  (BAL)                                               */ 02753100
*/*        TYPE=            INITIAL | ENTRY | FINAL | SET            */ 02801400
*/*                          Required, no default                    */ 02849700
*/*                                                                  */ 02898000
*/*               INITIAL  Specifies that an entry table descriptor  */ 02946300
*/*                        list is starting. The header for the      */ 02994600
*/*                        list will be generated.                   */ 03042900
*/*               ENTRY    Specifies that an entry table descriptor  */ 03091200
*/*                        is to be generated. Each entry in the     */ 03139500
*/*                        list must be within the scope of an       */ 03187800
*/*                        INITIAL - FINAL pair.                     */ 03236100
*/*               FINAL    Specifies that the entry table descriptor */ 03284400
*/*                        list is complete.                         */ 03332700
*/*               SET      Specifies that an entry table descriptor  */ 03381000
*/*                        or header is to be initialized or reset.  */ 03429300
*/*                                                                  */ 03477600
*/*                                                                  */ 03525900
*/*02*   INPUT when TYPE is INITIAL or FINAL                         */ 03574200
*/*                                                                  */ 03622500
*/*           ,RELATED=     Any value                                */ 03670800
*/*                                                                  */ 03719100
*/*                                                                  */ 03767400
*/*02*   INPUT when TYPE is ENTRY                                    */ 03815700
*/*                                                                  */ 03864000
*/*       ,AKM=             Authorization Key Mask. Required.        */ 03912300
*/*                          The AKM can be a single number or pair  */ 03960600
*/*                          of numbers (low:high) separated by a    */ 04008900
*/*                          colon to indicate a range. Multiple     */ 04057200
*/*                          ranges may be specified and parenthesis */ 04105500
*/*                          are optional.  Example:                 */ 04153800
*/*                             AKM=(2,(3),5:8,(10:12),15)  would    */ 04202100
*/*                             result in: B'0011011110111001'       */ 04250400
*/*                             or decimal: 14265.                   */ 04298700
*/*       ,PROGRAM=       1 Program name. Character string of        */ 04347000
*/*                          maximum length 8, optionally enclosed   */ 04395300
*/*                          in single quotation marks.              */ 04443600
*/*       ,ROUTINE=       1 Routine address. A-type address.         */ 04491900
*/*                                                                  */ 04540200
*/*           ,ARR=         Associated Recovery Routine Address.     */ 04588500
*/*           ,ASCMODE=     PRIMARY | AR                             */ 04636800
*/*           ,ASYNCH=,     YES | NO  Valid only with ARR            */ 04685100
*/*           ,CANCEL=,     YES | NO  Valid only with ARR (See NOTES)*/ 04733400
*/*           ,EAX=         Extended Authorization index. Halfword   */ 04781700
*/*                          decimal value (self-defining term).     */ 04830000
*/*           ,EK=          Entry Key. Decimal number or constant    */ 04878300
*/*                          from 0 -15.                             */ 04926600
*/*           ,EKM=         Entry Key Mask. See AKM. Required when   */ 04974900
*/*                          PKM=REPLACE.                            */ 05023200
*/*           ,PARM1=       User parameter 1. A-type address or      */ 05071500
*/*                          character string of maximum length 4,   */ 05119800
*/*                          enclosed in single quotation marks.     */ 05168100
*/*           ,PARM2=       User parameter 2. See PARM1              */ 05216400
*/*           ,PC=          STACKING | BASIC                         */ 05264700
*/*           ,PKM=         OR | REPLACE                             */ 05313000
*/*           ,RAMODE=      31 | 24  Valid only with ROUTINE.        */ 05361300
*/*           ,SASN=        OLD | NEW                                */ 05409600
*/*           ,SSWITCH=     NO | YES                                 */ 05457900
*/*           ,STATE=       PROBLEM | SUPERVISOR                     */ 05506200
*/*           ,RELATED=     Any value                                */ 05554500
*/*                                                                  */ 05602800
*/*                                                                  */ 05651100
*/*02*   INPUT when TYPE is SET and HEADER is to be changed          */ 05699400
*/*                                                                  */ 05747700
*/*       ,HEADER=          HEADER name. RX-address or register      */ 05796000
*/*                          (1) - (15).                             */ 05844300
*/*       ,NUMETE=          Number of entries.  Symbol, decimal      */ 05892600
*/*                          number (1 to 128), or register.         */ 05940900
*/*           ,RECORD=      YES | NO.   INTERNAL USE ONLY.           */ 05989200
*/*                                                                  */ 06037500
*/*           ,RELATED=     Any value                                */ 06085800
*/*                                                                  */ 06134100
*/*                                                                  */ 06182400
*/*02*   INPUT when TYPE is SET and ETEADR is to be changed          */ 06230700
*/*                                                                  */ 06279000
*/*       ,ETEADR=          ENTRY name. RX-address or register       */ 06327300
*/*                          (1) - (15).                             */ 06375600
*/*       ,AKM=             Authorization Key Mask. Required.        */ 06423900
*/*                          The AKM can be a single number or pair  */ 06472200
*/*                          of numbers (low:high) separated by a    */ 06520500
*/*                          colon to indicate a range. Multiple     */ 06568800
*/*                          ranges may be specified and parenthesis */ 06617100
*/*                          are optional.  Example:                 */ 06665400
*/*                             AKM=(2,(3),5:8,(10:12),15)  would    */ 06713700
*/*                             result in: B'0011011110111001'       */ 06762000
*/*                             or decimal: 14265.                   */ 06810300
*/*       ,PROGRAM=       1 Program name. Character string of        */ 06858600
*/*                          maximum length 8, optionally enclosed   */ 06906900
*/*                          in single quotation marks.              */ 06955200
*/*       ,ROUTINE=       1 Routine address. A-type address or       */ 07003500
*/*                          register.                               */ 07051800
*/*                                                                  */ 07100100
*/*           ,ARR=         Associated Recovery Routine Address.     */ 07148400
*/*                          A-type address or register, or quoted   */ 07196700
*/*                          character string of maximum length 8.   */ 07245000
*/*           ,ASCMODE=     PRIMARY | AR                             */ 07293300
*/*           ,ASYNCH=,     YES | NO  Valid only with ARR            */ 07341600
*/*           ,CANCEL=,     YES | NO  Valid only with ARR (See NOTES)*/ 07389900
*/*           ,EAX=         Extended Authorization index.            */ 07438200
*/*                          Halfword decimal value, or register.    */ 07486500
*/*           ,EK=          Entry Key. Decimal number or constant    */ 07534800
*/*                          from 0 -15.                             */ 07583100
*/*           ,EKM=         Entry Key Mask. See AKM. Required when   */ 07631400
*/*                          PKM=REPLACE.                            */ 07679700
*/*           ,PARM1=       User parameter 1. A-type address or      */ 07728000
*/*                          character string of maximum length 4,   */ 07776300
*/*                          enclosed in single quotation marks.     */ 07824600
*/*                          Register form may contain data.         */ 07872900
*/*           ,PARM2=       User parameter 2. See PARM1              */ 07921200
*/*           ,PC=          STACKING | BASIC                         */ 07969500
*/*           ,PKM=         OR | REPLACE                             */ 08017800
*/*           ,RAMODE=      31 | 24  Valid only with ROUTINE.        */ 08066100
*/*           ,SASN=        OLD | NEW                                */ 08114400
*/*           ,SSWITCH=     NO | YES                                 */ 08162700
*/*           ,STATE=       PROBLEM | SUPERVISOR                     */ 08211000
*/*           ,RELATED=     Any value                                */ 08259300
*/*                                                                  */ 08307600
*/*03*    NOTES =                                                    */ 08355900
*/*         -  The following are not valid with PC=BASIC:            */ 08404200
*/*             ARR, ASCMODE=AR, ASYNCH, CANCEL, EAX, EK,            */ 08452500
*/*             PKM=REPLACE, SASN=NEW                                */ 08500800
*/*         -  Mutually exclusive keywords are noted numerically.    */ 08549100
*/*         -  Default options are listed first. If a default is     */ 08597400
*/*            is not listed, the parameter will be given a value    */ 08645700
*/*            of zero.                                              */ 08694000
*/*         -  The EKM is required when STATE=PROBLEM and the EK     */ 08742300
*/*            is specified.                                         */ 08790600
*/*         -  When CANCEL=NO is specified, the PC routine must be   */ 08838900
*/*            in supervisor state (STATE=SUPERVISOR), or the EKM    */ 08887200
*/*            must contain a system key, or the AKM can only have   */ 08935500
*/*            system keys and PKM=OR.                               */ 08983800
*/*         -  If explicit register notation is specified, only      */ 09032100
*/*            registers (2) through (12) may be used, unless        */ 09080400
*/*            noted otherwise.                                      */ 09128700
*/*                                                                  */ 09177000
*/*                                                                  */ 09225300
*/*01*  NOTES =                                                      */ 09273600
*/*                                                                  */ 09321900
*/*02*    RESTRICTIONS = None                                        */ 09370200
*/*                                                                  */ 09418500
*/*02*    DEPENDENCIES =                                             */ 09466800
*/*                      If the offsets in the IHAETD mapping        */ 09515100
*/*                      macro change, the SETA symbols defined      */ 09563400
*/*                      under 'IHAETD offsets' in the BAL source    */ 09611700
*/*                      must also be changed respectively.          */ 09660000
*/*                                                                  */ 09708300
*/*03*      CHARACTER-CODE DEPENDENCIES= EBCDIC                      */ 09756600
*/*                                                                  */ 09804900
*/*01*  MODULE TYPE = BIL MACRO                                      */ 09853200
*/*                                                                  */ 09901500
*/*02*    PROCESSOR = ASSEMBLER-H  or  PLAS                          */ 09949800
*/*                                                                  */ 09998100
*/*02*    INVOCATION = See MACRO definition                          */ 10046400
*/*                                                                  */ 10094700
*/*01*  COMPONENT  =  SCXMS (PC/AUTH)                                */ 10143000
*/*                                                                  */ 10191300
*/*01*  DISTRIBUTION LIBRARY = AMACLIB                               */ 10239600
*/*                                                                  */ 10287900
*/**** END OF SPECIFICATIONS *****************************************/ 10336200
*/*                                                                     10384500
.*                                                                      10432800
.*   CHANGE ACTIVITY =                                                  10481100
.*      $L0=AR      HBB3310 851118 PD16LD: Access Registers             10529400
.*      $D1=DCR0006 HBB3310 851118 PD16LD: ARR in quotes                10577700
.*      $P1=PC40037 HBB3310 860404 PD16LD: Inconsistent error checking  10626000
.*                                         with PLAS version            10674300
.*      $P2=PC40042 HBB3310 860404 PD16LD: Null sublist is processed    10722600
.*      $P3=PC40157 HBB3310 860825 PD16LD: Change MNOTE text            10770900
.*      $P4=PC40345 HBB3310 861020 PD16LD: Negative EK value            10819200
.*      $L1=AR      HBB3310 870406 PD16LD: Access Registers             10867500
.*      $D2=DCR0248 HBB3310 870406 PD16LD: Make EKM optional and add    10915800
.*                                         RAMODE keyword               10964100
.*      $P5=PC41695 HBB3310 871123 PD16LD: EAX default is 0, not loc 0  11012400
.*      $L2=ARREN   JBB3311 880418 PD16LD: ARR Enhancement              11060700
.*      $D3=DCR0012 JBB3311 880418 PD16LD: EKM required with EK when    11109000
.*                                         STATE=PROBLEM                11157300
.*      $D4=DCR0014 JBB3311 880418 PD16LD: Check AKM with CANCEL=NO     11205600
.*      $01=OY55354 HBB4430 920625 PD16EJ: Add RECORD keyword           11253900
.*                                                                      11302200
.********************************************************************** 11350500
.*                                                                      11398800
.SKIP    ANOP ,                                                         11447100
*        MACDATE  06/25/92                                              11495400
.*                                                                      11543700
.********************************************************************** 11592000
.*                                                                    * 11640300
.*       Declare GLOBAL and LOCAL variables                           * 11688600
.*                                                                    * 11736900
.********************************************************************** 11785200
.*                                                                      11833500
         GBLA  &IHAETDI       LIST counter                              11881800
         GBLC  &IHAETDN       LIST name                                 11930100
.*                                                                      11978400
         LCLA  &AKMV          AKM - Decimal value                       12026700
         LCLC  &AMOD          OI or NI the AMODE qualifier         @D2A 12075000
         LCLC  &ARRV          Associated Recovery Routine address       12123300
         LCLA  &AWK           Arithmetic work variable                  12171600
         LCLA  &COLN          Colon used but no parens (range value)    12219900
         LCLC  &CWK           Character work variable                   12268200
         LCLC  &CWK1          Character work variable              @01A 12316500
         LCLA  &DECVAL        Decimal work variable                     12364800
         LCLC  &EAXV          Extended Authorization Index              12413100
         LCLB  &AKMUSER       AKM specified a user key (flag)      @D4A 12461400
         LCLB  &EKMSYS        EKM specified a system key (flag)    @L2A 12509700
         LCLA  &EKMV          EKM - Decimal value                       12558000
         LCLC  &EKV           Entry Key value                           12606300
         LCLC  &EM(20)        General error messages                    12654600
         LCLC  &ENTV          ENTRY name (ETEADR or HEADER)             12702900
         LCLA  &ER1           Entry register low bound (ETEADR,HEADER)  12751200
         LCLA  &ER2           Entry register high bound (ETEADR,HEADER) 12799500
         LCLA  &FBYTE         FLAG byte                                 12847800
         LCLA  &FBSUP,&FBXMSS  FLAG byte settings                       12896100
         LCLB  &IHBBIT(16)    Bit array                                 12944400
         LCLA  &IHBBITL       Length of bit array &IHBBIT               12992700
         LCLB  &IHBERR        Error flag                                13041000
         LCLC  &KEYS1(22)     Keywords invalid with INITIAL,FINAL  @01C 13089300
         LCLC  &KEYN1(22)     Keyword names for &KEYS1             @01C 13137600
         LCLA  &K1SIZE        Dimension of &KEYS1 and &KEYN1       @L1A 13185900
         LCLC  &KEYS2(19)     Keywords invalid with HEADER         @L2C 13234200
         LCLC  &KEYN2(19)     Keyword names for &KEYS2             @L2C 13282500
         LCLA  &K2SIZE        Dimension of &KEYS2 and &KEYN2       @L1A 13330800
         LCLC  &KEYS4(4)      Keywords invalid with TYPE=ENTRY     @01C 13379100
         LCLC  &KEYN4(4)      Keyword names for &KEYS4             @01C 13427400
         LCLA  &K4SIZE        Dimension of &KEYS4 and &KEYN4       @L1A 13475700
         LCLC  &KEYS5(8)      Keywords invalid with PC=BASIC       @L2A 13524000
         LCLC  &KEYN5(8)      Keyword names for &KEYS5             @L2A 13572300
         LCLA  &K5SIZE        Dimension of &KEYS5 and &KEYN5       @L2A 13620600
         LCLA  &L1            Lower bound                               13668900
         LCLA  &L2            Upper bound                               13717200
         LCLA  &LPAFB1        Flag for LPA, byte 1                 @L2A 13765500
         LCLA  &LPA1CAN         LPA Flag  CANCEL option for ARR    @L2A 13813800
         LCLA  &LPA1ASY         LPA Flag  ASYNCH option for ARR    @L2A 13862100
         LCLA  &NDX           Substring index                           13910400
         LCLC  &NUMV          NUMETE value                              13958700
         LCLA  &OBYTE         OPTION byte                               14007000
         LCLA  &OBPCTC,&OBPKC   OPTION byte settings                    14055300
         LCLA  &OBPKMC,&OBEAXC  OPTION byte settings                    14103600
         LCLA  &OBASC,&OBSASN   OPTION byte settings                    14151900
         LCLA  &PAREN         Parenthesis used                          14200200
         LCLC  &PARM1V        USER parameter 1                          14248500
         LCLC  &PARM2V        USER parameter 2                          14296800
         LCLC  &PGM           PROGRAM NAME                              14345100
         LCLC  &RANGE(2)      Lower/upper range values                  14393400
         LCLC  &RTNV          ROUTINE address                           14441700
         LCLC  &RTNAMOD       AMODE for register form of ROUTINE   @D2A 14490000
         LCLA  &RVAL          Range value pointer                       14538300
         LCLA  &R1            Register usage lower bound                14586600
         LCLA  &R2            Register usage upper bound                14634900
         LCLA  &SUB           Sublist element number                    14683200
         LCLA  &SYSKEY        Highest system key                   @L2A 14731500
         LCLA  &USERKEY       Highest user key                     @L2A 14779800
         LCLC  &VALUE         Sublist element                           14828100
.*                                                                      14876400
.********************************************************************** 14924700
.*       Declares for IHAETD offsets and lengths                      * 14973000
.********************************************************************** 15021300
.*                                                                      15069600
         LCLA  &ETDFMT        Offset to FORMAT NUMBER                   15117900
         LCLA  &ETDFMTE       Extended format indicator                 15166200
         LCLA  &ETDRCRD       Record=YES|NO indicator              @01A 15214500
         LCLA  &ETDNUM        Offset to NUMBER OF ENTRIES               15262800
.*                                                                      15311100
         LCLA  &ETDFLG        Offset to FLAG BYTE                       15359400
         LCLA  &ETDPRO        Offset to PROGRAM name                    15407700
         LCLA  &ETDPRO1       Offset to first word of ETDPRO            15456000
         LCLA  &ETDPRO2       Offset to second word of ETDPRO           15504300
         LCLA  &ETDAKM        Offset to AKM                             15552600
         LCLA  &ETDEKM        Offset to EKM                             15600900
         LCLA  &ETDPAR        Offset to PARM1                           15649200
         LCLA  &ETDOPT1       Offset to OPTION BYTE 1                   15697500
         LCLA  &ETDEK         Offset to EK                              15745800
         LCLA  &ETDEAX        Offset to EAX                             15794100
         LCLA  &ETDARR        Offset to ARR                             15842400
         LCLA  &ETDARR1       Offset to first word of ETDARR            15890700
         LCLA  &ETDARR2       Offset to second word of ETDARR           15939000
         LCLA  &ETDPAR2       Offset to PARM2                           15987300
         LCLA  &ETDLPA1       Offset to LPA FLAG BYTE 1            @L2A 16035600
.*                                                                      16083900
         LCLA  &ETDNUML       Length of NUMBER OF ENTRIES               16132200
         LCLA  &ETDPROL       Length of PROGRAM name                    16180500
         LCLA  &ETDPR1L       Length of first word of ETDPRO            16228800
         LCLA  &ETDPR2L       Length of second word of ETDPRO           16277100
         LCLA  &ETDAKML       Length of AKM                             16325400
         LCLA  &ETDEKML       Length of EKM                             16373700
         LCLA  &ETDPA1L       Length of PARM1                           16422000
         LCLA  &ETDEAXL       Length of EAX                             16470300
         LCLA  &ETDARRL       Length of ARR                             16518600
         LCLA  &ETDAR1L       Length of first word of ETDARR            16566900
         LCLA  &ETDAR2L       Length of second word of ETDARR           16615200
         LCLA  &ETDPA2L       Length of PARM2                           16663500
.*                                                                      16711800
.********************************************************************** 16760100
.*                                                                    * 16808400
.*       IHAETD offsets       These SETs should not be changed        * 16856700
.*                            unless the offsets in the IHAETD        * 16905000
.*                            mapping macro have been changed.        * 16953300
.*                                                                    * 17001600
.********************************************************************** 17049900
.*                                                                      17098200
&ETDFMT  SETA    0            Offset to FORMAT NUMBER                   17146500
&ETDFMTE SETA    1            Extended format indicator                 17194800
&ETDRCRD SETA    0            Record=NO indicator                  @01A 17243100
&ETDRCO  SETA    1            Offset to Header Flag Byte           @01A 17291400
&ETDNUM  SETA    2            Offset to NUMBER OF ENTRIES               17339700
.*                                                                      17388000
&ETDFLG  SETA    1            Offset to FLAG BYTE                       17436300
&ETDPRO  SETA    4            Offset to PROGRAM name                    17484600
&ETDPRO1 SETA    4            Offset to first word of ETDPRO            17532900
&ETDPRO2 SETA    8            Offset to second word of ETDPRO           17581200
&ETDAKM  SETA   12            Offset to AKM                             17629500
&ETDEKM  SETA   14            Offset to EKM                             17677800
&ETDPAR  SETA   16            Offset to PARM1                           17726100
&ETDOPT1 SETA   20            Offset to OPTION BYTE 1                   17774400
&ETDEK   SETA   21            Offset to EK                              17822700
&ETDEAX  SETA   22            Offset to EAX                             17871000