         MACRO                                                          00050000
&NAME    EXCP  &CCB,&KEYW                                               00100000
         LCLC  &CL                                                   EM 00150000
.*       IBM DISK OPERATING SYSTEM                                      00200000
*        SUPVR COMMN MACRO - EXCP - 5686-007-06 - C44                   00250000
         AGO   .ZZZ                                            @D31UDMZ 00300000
*        THIS MACRO IS "RESTRICTED MATERIALS OF IBM"           @D31UDMZ 00350000
*        5686-007 (C) COPYRIGHT IBM CORP. 1977,1989            @D31UDMZ 00400000
*        ALL RIGHTS RESERVED                                   @D31UDMZ 00450000
*        LICENSED MATERIALS-PROPERTY OF IBM                    @D31UDMZ 00500000
*        SEE COPYRIGHT INSTRUCTIONS, G120-2083                 @D31UDMZ 00550000
.ZZZ     ANOP                                                  @D31UDMZ 00600000
         AIF   ('&CCB' EQ '').L6         NO PARAMETER SPECIFIED         00650000
         AIF   (T'&KEYW EQ 'O').L2                                   EM 00700000
         AIF   ('&KEYW'(1,5) EQ 'REAL').XCPR                         EM 00750000
         AIF   ('&KEYW'(1,5) EQ 'BTAM').BTM                          EM 00800000
         MNOTE 5,'WRONG KEYWORD,MACRO IGNORED'                       EM 00850000
         MEXIT                                                       EM 00900000
.XCPR    ANOP                                                        EM 00950000
&CL      SETC  '80'                                                  EM 01000000
         AGO   .L2                                                   EM 01050000
.BTM     ANOP                                                        EM 01100000
&CL      SETC  '40'                                                  EM 01150000
.L2      AIF   ('&CCB'(1,1) EQ '(').L1   REG SPECIFIED               EM 01200000
&NAME    L     1,=A(&CCB)                                               01250000
         AGO   .L4                                                      01300000
.L1      AIF   ('&CCB'(2,2) EQ '1)').L5                                 01350000
&NAME    LR    1,&CCB(1)                                                01400000
.L4      AIF   ('&CL' EQ '').L3                                      EM 01450000
         OI    6(1),X'&CL'        SET ON KEYWORD INDICATOR           EM 01500000
.L3      SVC   0                                                     EM 01550000
         MEXIT                                                          01600000
.L6      MNOTE 5,'NO CCB SPECIFIED - MACRO IGNORED'                     01650000
         MEXIT                                                          01700000
.L5      AIF   ('&CL' EQ '').L7                                      EM 01750000
&NAME    OI    6(1),X'&CL'        SET ON KEYWORD INDICATOR           EM 01800000
         AGO   .L3                                                   EM 01850000
.L7      ANOP                                                        EM 01900000
&NAME    SVC   0                                                     EM 01950000
         MEND                                                           02000000
