         MACRO                                                          00050000
&NAME    EXIT  &TY                                                      00100000
         LCLA    &AL1                                                   00150000
.*       IBM DISK OPERATING SYSTEM                                      00200000
*        SUPVR COMMN MACROS - EXIT - 5686-066                           00250003
         AGO   .ZZZ                                                     00300003
*        LICENSED MATERIALS-PROPERTY OF IBM                             00310003
*        THIS MACRO IS "RESTRICTED MATERIALS OF IBM"                    00350003
*        5686-066 (C) COPYRIGHT IBM CORP. 1977,1996                     00400003
*        SEE COPYRIGHT INSTRUCTIONS                                     00550003
.ZZZ     ANOP                                                           00600003
         AIF   (T'&TY EQ 'O').MIS                                       00650000
         AIF   ('&TY' EQ 'AB').AB                              @D33DDJO 00700000
         AIF   ('&TY' EQ 'OC').OC                                       00750000
         AIF   ('&TY' EQ 'IT').IT                                       00800000
         AIF   ('&TY' EQ 'PC').PC                                       00850000
         AIF   ('&TY' EQ 'MR').MR                                       00900000
         AIF   ('&TY' EQ 'TT').TT                              @D33PADO 00950000
         MNOTE 5,'TYPE INVALID - MACRO IGNORED'                         01000000
         MEXIT                                                          01050000
.TT      ANOP                                                  @D33PADO 01100000
         MNOTE 8,'TYPE TT NOT SUPPORTED ANYMORE'               @D64ADOW 01150001
         MEXIT                                                 @D64ADOW 01160001
.AB      ANOP                                                  @D33DDJO 01200000
&AL1     SETA  &AL1+67                                         @D33DDJO 01250000
.MR      ANOP                                                           01300000
&AL1     SETA  &AL1+7                                                   01350000
.OC      ANOP                                                           01400000
&AL1     SETA  &AL1+2                                                   01450000
.IT      ANOP                                                           01500000
&AL1     SETA  &AL1+2                                                   01550000
.PC      ANOP                                                           01600000
&AL1     SETA  &AL1+17                                                  01650000
&NAME    SVC   &AL1                                                     01700000
         MEXIT                                                          01750000
.MIS     MNOTE 5,'OPERAND OMITTED - MACRO IGNORED'                      01800000
         MEND                                                           01850000
