* N O T E   EFFECTIVE WITH THE SWITCH OF VSAM AND VTAM TO PROGRAM       00050000
*           PRODUCTS, ALL NEW KEYWORDS ARE IMPLEMENTED AS ELEMENTS      00100000
*           IN THE SUBLISTS OF THE PARMS, PARM2, AND PARM3 KEYWORDS.    00150000
*           AS SUCH, THEY ARE VALIDITY CHECKED BY THE INDIVIDUAL        00200000
*           ACCESS METHODS, NOT BY THE CONTROL BLOCK MANIPULATION       00250000
*           MACROS.                                                     00300000
*                                                                       00350000
         MACRO                                                          00400000
&NAME    EXLST ,                   INT  EXL  RPL  NIB  EXLST           *00450000
               &AM=,                X                                  *00500000
               &ATTN=,                                   X             *00550000
               &DFASY=,                                  X             *00600000
               &EODAD=,                                  X             *00650000
               &EXCPAD=,                                 X             *00700000
               &JRNAD=,                                  X             *00750000
               &LERAD=,                                  X             *00800000
               &LOGON=,                                  X             *00850000
               &LOSTERM=,                                X             *00900000
               &NSEXIT=,                                 X     @D34LE86*00950000
               &OPENAD=,                                 X             *01000000
               &RELREQ=,                                 X             *01050000
               &RESP=,                                   X             *01100000
               &SCIP=,                                   X             *01150000
               &SYNAD=,                                  X             *01200000
               &TPEND=,                                  X             *01250000
               &PARMS=,                                  X     @D35ZE86*01300000
               &PARM2=,                                  X     @D35ZE86*01350000
               &PARM3=                                   X     @D35ZE86 01400000
.*                                                                      01450000
.* IBM DISK OPERATING SYSTEM                                            01500000
*  VSAM - EXLST - 5745-SC-VCM(G07)  -  RELEASE 1 MODIFICATION 0         01550000
.*                                                                      01600000
.* /* START OF SPECIFICATIONS ***************************************** 01650000
.*                                                                      01700000
.*01* MODULE-NAME = EXLST (DOS/VS)                                      01750000
.*                                                                      01800000
.*01* DESCRIPTIVE-NAME = EXIT LIST ROOT MACRO                           01850000
.*                                                                      01900000
.*01* COPYRIGHT =                                                       01950000
.*       5746-AM2 COPYRIGHT IBM CORP 1979                               02000000
.*       LICENSED MATERIAL - PROGRAM PROPERTY OF IBM                    02050000
.*       REFER TO COPYRIGHT INSTRUCTIONS                                02100000
.*                FORM NUMBER G120-2083                                 02150000
.*                                                                      02200000
.*01* STATUS = RELEASE 1.0                                              02250000
.*                                                                      02300000
.*01* FUNCTION = ENSURES THAT PARAMETERS SPECIFIED BY THE USER ARE      02350000
.*        VALID FOR THE ACCESS METHOD SPECIFIED.  THEN PASSES CONTROL   02400000
.*        TO THE ACCESS METHOD INTERNAL MACROS WHICH COMPLETE THE       02450000
.*        VALIDITY CHECKING AND GENERATE THE EXLST.                     02500000
.*                                                                      02550000
.*01* MODULE-TYPE = MACRO                                               02600000
.*                                                                      02650000
.*02*   PROCESSOR = /370 ASSEMBLER                                      02700000
.*                                                                      02750000
.*01* INPUT = SEE PROTOTYPE STATEMENT                                   02800000
.*                                                                      02850000
.*01* OUTPUT = EXLST GENERATED                                          02900000
.*                                                                      02950000
.*01* EXIT-NORMAL = NA                                                  03000000
.*                                                                      03050000
.*01* EXIT-ERROR = MNOTES ISSUED FOR ERROR CONDITIONS.  GENERATION      03100000
.*        CONTINUES.                                                    03150000
.*                                                                      03200000
.*01* MACROS = IKQERMAC                                                 03250000
.*        IKQEXL1                                                       03300000
.*        ISTEXL1                                                       03350000
.*                                                                      03400000
.*01* CHANGE-ACTIVITY = VTAM SNA 3 SUPPORT                     @D34LE86 03450000
.*       VSAM/VTAM INDEPENDENCE OF PROGRAM PRODUCTS            @D35ZE86 03500000
.*                                                                      03550000
.**** END OF SPECIFICATIONS ******************************************/ 03600000
.*                                                                      03650000
         AIF ('&AM' EQ '').VSMEXL       DOS/VS VSAM EXPANSION           03700000
         AIF ('&AM' EQ 'VSAM').VSMEXL   DOS/VS VSAM EXPANSION           03750000
         AIF ('&AM' EQ 'VTAM').VTMEXL   DOS/VS VTAM EXPANSION           03800000
         IKQERMAC 3,AM,&AM              INVALID ACCESS METHOD           03850000
.*                                                                      03900000
.*       TEST FOR NON-VSAM KEYWORDS SPECIFIED FOR AM=VSAM               03950000
.*                                                                      04000000
.VSMEXL  ANOP                                                           04050000
.VSMA010 ANOP                                                           04100000
         AIF   ('&ATTN' EQ '').VSMA020                                  04150000
         IKQERMAC 11,ATTN,VSAM         ATTN     IS A VTAM KEYWORD       04200000
.VSMA020 ANOP                                                           04250000
         AIF   ('&DFASY' EQ '').VSMA030                                 04300000
         IKQERMAC 11,DFASY,VSAM        DFASY    IS A VTAM KEYWORD       04350000
.VSMA030 ANOP                                                           04400000
         AIF   ('&LOGON' EQ '').VSMA050                                 04450000
         IKQERMAC 11,LOGON,VSAM        LOGON    IS A VTAM KEYWORD       04500000
.VSMA050 ANOP                                                           04550000
         AIF   ('&LOSTERM' EQ '').VSMA055                      @D34LE86 04600000
         IKQERMAC 11,LOSTERM,VSAM      LOSTERM  IS A VTAM KEYWORD       04650000
.VSMA055 ANOP                                                  @D34LE86 04700000
         AIF   ('&NSEXIT' EQ '').VSMA060                       @D34LE86 04750000
         IKQERMAC 11,NSEXIT,VSAM       NSEXIT   IS A VTAM KWD  @D34LE86 04800000
.VSMA060 ANOP                                                           04850000
         AIF   ('&RELREQ' EQ '').VSMA070                                04900000
         IKQERMAC 11,RELREQ,VSAM       RELREQ   IS A VTAM KEYWORD       04950000
.VSMA070 ANOP                                                           05000000
         AIF   ('&RESP' EQ '').VSMA080                                  05050000
         IKQERMAC 11,RESP,VSAM         RESP     IS A VTAM KEYWORD       05100000
.VSMA080 ANOP                                                           05150000
         AIF   ('&SCIP' EQ '').VSMA090                                  05200000
         IKQERMAC 11,SCIP,VSAM         SCIP     IS A VTAM KEYWORD       05250000
.VSMA090 ANOP                                                           05300000
         AIF   ('&TPEND' EQ '').VSMA100                                 05350000
         IKQERMAC 11,TPEND,VSAM        TPEND    IS A VTAM KEYWORD       05400000
.VSMA100 ANOP                                                           05450000
.*                                                                      05500000
.*       TEST FOR OS/VS EXCLUSIVE VSAM KEYWORDS                         05550000
.*                                                                      05600000
         AIF   ('&OPENAD' EQ '').VSMB010                                05650000
         IKQERMAC 18,OPENAD,DOS/VS      OPENAD   VALID FOR OS/VS ONLY   05700000
.VSMB010 ANOP                                                           05750000
.*                                                                      05800000
.*       FETCH THE MACRO TO COMPLETE VALIDITY CHECKING THE VSAM EXLST   05850000
.*                                                                      05900000
         IKQEXL1 ,                 INT  EXL  RPL  NIB  EXLST   @D35ZE86*05950000
               AM=&AM,              X                                  *06000000
               EODAD=&EODAD,                             X             *06050000
               EXCPAD=&EXCPAD,                           X             *06100000
               JRNAD=&JRNAD,                             X             *06150000
               LERAD=&LERAD,                             X             *06200000
               NAME=&NAME,                               X             *06250000
               SYNAD=&SYNAD,                             X             *06300000
               PARMS=&PARMS,                             X     @D35ZE86*06350000
               PARM2=&PARM2,                             X     @D35ZE86*06400000
               PARM3=&PARM3                              X     @D35ZE86 06450000
           MEXIT                                                        06500000
.*                                                                      06550000
.*       TEST FOR NON-VTAM KEYWORDS SPECIFIED FOR AM=VTAM               06600000
.*                                                                      06650000
.VTMEXL  ANOP                                                           06700000
         AIF   ('&EODAD' EQ '').VTMA010                                 06750000
         IKQERMAC 11,EODAD,VTAM         EODAD    IS A VSAM KEYWORD      06800000
.VTMA010 AIF   ('&EXCPAD' EQ '').VTMA020                                06850000
         IKQERMAC 11,EXCPAD,VTAM        EXCPAD   IS A VSAM KEYWORD      06900000
.VTMA020 AIF   ('&JRNAD' EQ '').VTMA030                                 06950000
         IKQERMAC 11,JRNAD,VTAM         JRNAD    IS A VSAM KEYWORD      07000000
.VTMA030 AIF   ('&OPENAD' EQ '').VTMA040                                07050000
         IKQERMAC 11,OPENAD,VTAM        OPENAD   IS A VSAM KEYWORD      07100000
.VTMA040 ANOP                                                           07150000
.*                                                                      07200000
.*       TEST FOR OS/VS EXCLUSIVE VTAM KEYWORDS                         07250000
.*                                                                      07300000
.*       AIF   ('&XXXXXX' EQ '').VTMB010 USE THIS FORM OF TESTING       07350000
.*       IKQERMAC 18,XXXXXX,DOS/VS      IF APPLICABLE                   07400000
.VTMB010 ANOP                                                           07450000
.*                                                                      07500000
.*       FETCH THE MACRO TO COMPLETE VALIDITY CHECKING THE VTAM EXLST   07550000
.*                                                                      07600000
         ISTEXL1 ,                 INT  EXL  RPL  NIB  EXLST   @D35ZE86*07650000
               AM=&AM,              X                                  *07700000
               ATTN=&ATTN,                               X             *07750000
               DFASY=&DFASY,                             X             *07800000
               LERAD=&LERAD,                             X             *07850000
               LOGON=&LOGON,                             X             *07900000
               LOSTERM=&LOSTERM,                         X             *07950000
               NAME=&NAME,                               X             *08000000
               NSEXIT=&NSEXIT,                           X     @D34LE86*08050000
               RELREQ=&RELREQ,                           X             *08100000
               RESP=&RESP,                               X             *08150000
               SCIP=&SCIP,                               X             *08200000
               SYNAD=&SYNAD,                             X             *08250000
               TPEND=&TPEND,                             X             *08300000
               PARMS=&PARMS,                             X     @D35ZE86*08350000
               PARM2=&PARM2,                             X     @D35ZE86*08400000
               PARM3=&PARM3                              X     @D35ZE86 08450000
           MEND                                                         08500000
