*% GOTO  EXTPLS;                /* ASSEMBLER MACRO IN COMMENT           00050000
         MACRO                                                          00100000
&NAME    EXTENT &BLK,&DSECT=NO                                          00150000
.*       IBM DISK OPERATING SYSTEM                                      00200000
*        SUPERVISOR - EXTENT - 5686-007-06-C44                          00250000
         AGO   .NOCOPY                                                  00300000
*        THIS MACRO IS "RESTRICTED MATERIALS OF IBM"          @D31UDMZ  00350000
*        5686-007 (C) COPYRIGHT IBM CORP. 1981,1989           @D31UDMZ  00400000
*        ALL RIGHTS RESERVED                                  @D31UDMZ  00450000
*        LICENSED MATERIALS-PROPERTY OF IBM                             00500000
*        SEE COPYRIGHT INSTRUCTIONS, G120-2083                @D31UDMZ  00550000
.NOCOPY ANOP                                                            00600000
.* /* START OF SPECIFICATIONS ***************************************** 00650000
.*                                                                      00700000
.*01* MODULE-TYPE = SUPERVISOR GENERATION AND USER INTERFACE MACRO      00750000
.*                                                                      00800000
.*01* DECRIPTIVE NAME = DASD FILE-PROTECT EXTENT INTERFACE              00850000
.*                                                                      00900000
.*01* NOTES = CHANGE ACTIVITY                                           00950000
.*    NEW CODE FOR RELEASE 35 TO SUPPORT FBA                            01000000
.* A000000-999999                                              @D35DDEP 01050000
.*    PROVIDE FOR READ WRITE TRACK PROTECTION                  @D14BDAP 01100000
.**** END OF SPECIFICATIONS ******************************************* 01150000
         AIF   ('&DSECT' NE 'YES').NODSECT                              01200000
EXTADR   DSECT ,             EXTENT MACRO INPUT PARM LIST               01250000
EXTFLG   DS    X             CONTROL FLAGS                              01300000
EXTREAD  EQU   X'80'         READ PROTECTION                   @D37BDAP 01350000
EXTADD   EQU   X'40'         ADD THE GIVEN EXTENT                       01400000
EXTDEL   EQU   X'20'         DELETE THE GIVEN EXTENT                    01450000
EXTDELA  EQU   X'10'         DELETE ALL EXTENTS FOR LOGICAL UNIT        01500000
EXTCHK   EQU   X'08'         CHECK FOR EXACTLY MATCHING EXTENT          01550000
EXTDELJC EQU   X'04'         RESERVED FOR JCL                  @D37DDAP 01600000
EXTTRK   EQU   X'01'         USER REQUESTS TRACK PROTECTION    @D14BDAP 01650000
EXTLNO   DS    AL3           ADDR OF LOGICAL UNIT NO. AS IN A CCB       01700000
EXTHI    DS    A             ADDR OF 4 BYTE HIGH EXTENT                 01750000
EXTLOW   DS    A             ADDR OF 4 BYTE LOW EXTENT                  01800000
EXTLEN   EQU   *-EXTADR                                                 01850000
EXTOK    EQU   0             SUCCESSFUL COMPLETION                      01900000
EXTNOTAS EQU   4             LOGICAL UNIT NOT ASSIGNED OR SUPPORTED     01950000
EXTNMTCH EQU   8             NO MATCHING EXTENT                         02000000
EXTNSPAC EQU   12            NO EXTENT SPACE AVAILABLE                  02050000
EXTBPL   EQU   16            BAD PARAMETER LIST                         02100000
* EXTENTS ARE NOT REQUIRED FOR DELETE ALL.                              02150000
* FOR FBA, EXTENT IS A 32 BIT BINARY INTEGER(PHYSICAL BLOCK NUMBER)     02200000
* FOR CKD, EXTENT IS TWO 16 BIT BINARY INTEGERS(CCHH), 2ND NOT USED     02250000
         MEXIT                                                          02300000
.NODSECT ANOP                                                           02350000
&NAME    DS    0H                                                       02400000
         AIF   (T'&BLK EQ 'O').L6                                       02450000
         AIF   ('&BLK'(1,1) EQ '(').L1   REG SPECIFIED                  02500000
         L     1,=A(&BLK)                                               02550000
         AGO   .L3                                                      02600000
.L1      AIF   ('&BLK'(2,2) EQ '1)').L3                                 02650000
         LR    1,&BLK(1)                                                02700000
.L3      ANOP                                                           02750000
         SVC   104                                                      02800000
         MEXIT                                                          02850000
.L6      MNOTE 5,'NO PARM LIST SPECIFIED - MACRO IGNORED'               02900000
         MEND                                                           02950000
*        */                                                             03000000
*%EXTPLS: ;                                                             03050000
*       %IF EXT9999¬=','                /* IF THIS IS THE LAST BLOCK */ 03100000
*          %THEN %EXT9999=';'           /*  THEN CLOSE THE DCL STMT */; 03150000
*       %IF EXTLEVEL¬=''                /* IF THIS IS CONCATENATED   */ 03200000
*          %THEN %EXTDUM=EXTLEVEL||' EXTADR' /* USER DCL   @D3CADAP */; 03250000
*       %ELSE %EXTDUM='DCL 1 EXTADR BASED ' /* LEVEL 1 DCL @D3CADAP */; 03300000
*/********************************************************************/ 03350000
*/*     DOS/VS EXTENT MACRO INPUT PARAMETER LIST                     */ 03400000
*/********************************************************************/ 03450000
*     EXTDUM , /* EXTENT PARM LIST */                                   03500000
*        5 EXTFLG    CHAR(1),      /* CONTROL FLAGS                  */ 03550000
*          6 EXTREAD BIT(1),       /* READ PROTECTION        @D14BDAP*/ 03600000
*          6 EXTADD  BIT(1),       /* ADD THE GIVEN EXTENT           */ 03650000
*          6 EXTDEL  BIT(1),       /* DELETE THE GIVEN EXTENT        */ 03700000
*          6 EXTDELA BIT(1),       /* DELETE ALL EXTENTS FOR LNO     */ 03750000
*          6 EXTCHK  BIT(1),       /* CHECK FOR MATCHING EXTENT      */ 03800000
*          6 EXTDELJC BIT(1),      /* RESERVED FOR JCL       @D37DDAP*/ 03850000
*          6 *       BIT(1),       /* RESERVED                       */ 03900000
*          6 EXTTRK  BIT(1),       /* USER REQUESTS TRK PROT @D14BDAP*/ 03950000
*        5 EXTLNO    PTR(24),      /* LOGICAL UNIT NO. ADDRESS       */ 04000000
*        5 EXTHI     PTR,          /* ADDR OF 4-BYTE HIGH EXTENT     */ 04050000
*        5 EXTLOW    PTR           /* ADDR OF 4-BYTE LOW EXTENT      */ 04100000
*             EXT9999                                                   04150000
* %EXTLEN='LENGTH(EXTADR)';                                             04200000
* %EXTOK='0'                 /* SUCCESSFUL COMPLETION               */; 04250000
* %EXTNOTAS='4'              /* UNIT NOT ASSIGNED OR NOT SUPPORTED  */; 04300000
* %EXTNMTCH='8'              /* NO MATCHING EXTENT.(CHECK/DELETE)   */; 04350000
* %EXTNSPAC='12'             /* NO EXTENT SPACE AVAILABLE.(ADD)     */; 04400000
* %EXTBPL='16'               /* BAD PARAMETER LIST                  */; 04450000
