*%GOTO EXTRPLS ;   /*                                                   00010004
      MACRO                                                             00020004
&NAME    EXTRACT  &ID=,                                       @D35EDWK *00030004
               &AREA=,                                        @D35EDWK *00040004
               &LEN=,                                         @D35EDWK *00050004
               &DISP=,                                        @D35EDWK *00060004
               &SEL=,                                         @D35EDWK *00070004
               &SEP=,                                         @D35EDWK *00080004
               &PID=,                                         @D35EDWK *00090004
               &SID=,                                         @D14NDWK *00100004
               &PU=,                                          @D14CDWK *00110004
               &MODE=,                                        @D35EDWK *00120004
               &LOC=,                                         @SUPSERV *00130004
               &RESET=,                                       @DY45817 *00140004
               &MFG=                                          @D35EDWK  00150004
.*                                                                      00160004
         LCLA  &TID,&TMFG,&TOFF,&TAR,&TSEL,&TPID,&TSEP,&TFLAG  @D356DWK 00170004
         LCLA  &TLEN,&TDISP,&GO,&TSID,&TPU                     @D14CDWK 00180004
         LCLA  &DISPA                                          @D356DWK 00190004
         LCLB  &DISPSW            DISP ALLOWED                 @D21LDRP 00200004
         LCLB  &MODESW            MODE ALLOWED                 @D61DDEM 00210004
         LCLB  &PIDSW             PID ALLOWED                  @D21LDRP 00220004
         LCLB  &PUSW              PU  ALLOWED                  @D21LDRP 00230004
         LCLB  &SELSW             SEL ALLOWED                  @D21LDRP 00240004
         LCLB  &SELRSW            SEL REQUIRED                 @D21LDRP 00250004
         LCLB  &SEPSW             SEP ALLOWED                  @D21LDRP 00260004
         LCLB  &SEPRSW            SEP REQUIRED                 @D21LDRP 00270004
         LCLB  &LPEXCL            SEP AND SEL ARE MUTUALY EXCL. ONE IS *00280004
                                  REQUIRED                     @D21LDRP 00290004
         LCLB  &LPUEXCL           PU, SEP AND SEL ARE MUTUALY EXCL. ONE*00300004
                                  IS REQUIRED                  @D21LDRP 00310004
         LCLC  &DISPC                                          @D356DWK 00320004
         LCLC  &TOPE,&TADDR,&BADDR                             @D356DWK 00330004
.*                                                                      00340004
.**************************************************************         00350004
*                                                             *@D51MDGL 00360004
.*       IBM VSE / ADVANCED FUNCTIONS                         *@D51MDGL 00370004
*        SUPERVISOR - EXTRACT - 5686-066-06-15G               *@D61DDGL 00380004
.*                                                                      00390004
         AGO   .CPRIGHT                                                 00400004
.*                                                                      00410004
*        LICENSED MATERIALS - PROGRAM PROPERTY OF IBM         *@D51MDGL 00420004
*        THIS MACRO IS "RESTRICTED MATERIALS OF IBM"          *@D51MDGL 00430004
*        5686-066 (C) COPYRIGHT IBM CORP. 1979, 1995          *@D61DDGL 00440004
*        SEE COPYRIGHT INSTRUCTIONS                           *@D51MDGL 00450004
.*                                                                      00460004
.CPRIGHT ANOP                                                           00470004
*                                                             *@D51MDGL 00480004
.**************************************************************         00490004
.*                                                                      00500004
.**** START OF SPECIFICATIONS ***************************************** 00510004
.*                                                                      00520004
.*01* MODULE-TYPE = MACRO                                               00530004
.*                                                                      00540004
.*01* DESCRIPTIVE NAME = EXTRACT SYSTEM INFORMATION            @D35EDJO 00550004
.*  STATUS           =  NEW MACRO - FIRST RELEASE 34.0                  00560004
.*  FUNCTION         =  MACRO CHECKS USER GIVEN PARAMETERS FOR          00570004
.*                      RETRIEVAL OF SUPERVISOR FIELDS VIA     @D35EDWK 00580004
.*                      SVC98 . A PARAMETER LIST IS BUILT.     @D35EDWK 00590004
.*  NOTES            =                                                  00600004
.*  DEPENDENCIES     =                                                  00610004
.*  RESTRICTIONS     =                                                  00620004
.*  REGISTER CONVENT.=  REGISTER 1 USED BY MACRO AS POINTER TO          00630004
.*                      PARAMETER LIST FOR SVC 98                       00640004
.*                      REGISTER 15 USED AS RETURNCODE REGISTER         00650004
.*                      REGISTER 0 USED BY MACRO FOR S-TYPE    @D35EDWK 00660004
.*                      NOTATION                               @D35EDWK 00670004
.*  PATCH LABEL      =  NONE                                            00680004
.*  MACRO TYPE       =  BILINGUAL                                       00690004
.*  PROCESSOR        =  ASM / PLS2                                      00700004
.*  MACRO SIZE       =                                                  00710004
.*  ATTRIBUTES       =                                                  00720004
.*  ENTRY POINT      =  EXTRACT                                         00730004
.*  PURPOSE          =  SEE FUNCTION                                    00740004
.*  LINKAGE          =                                                  00750004
.*  CALLER           =                                                  00760004
.*  INPUT            =   (CALLING SEQUENCE)                    @D35EDWK 00770004
.*    1. ASM :                                                 @D35EDWK 00780004
.*        LABEL   EXTRACT  ID=PUB2|DVTY|BDY|CR|PUB|CPUID|MAP   @D14NDWK 00790004
.*                         |DEVICE|SENSE|GETVIS|PART|SVA       @D51MDGL 00800004
.*                         |SAINFO|ATLCUU                      @D61MDGL 00810004
.*                         AREA=(NAME1 |(S,NAME1)| (R1) ),     @D35EDWK 00820004
.*                         LEN=(NAME2 | (R2) ),                @D35EDWK 00830004
.*                         DISP=(NAME3 | (R3) ),               @D35EDWK 00840004
.*                         SEL=(NAME4 |(S,NAME4)| (R4) ), OR   @D35EDWK 00850004
.*                         SEP=(NAME4 |(S,NAME4)| (R4) ),      @D35EDWK 00860004
.*                         PID=(NAME5 |(S,NAME5)| (R5) ),      @D35EDWK 00870004
.*                         SID=(NAME6 |(S,NAME6)| (R6) ),      @D14NDWK 00880004
.*                         PU=(NAME7 |(S,NAME7)| (R7) ),       @D149DWK 00890004
.*                         MODE=(S | P | T),                   @D35EDWK 00900004
.*                         LOC=(RES|BELOW|ANY),                @SUPSERV 00910004
.*                         RESET=(NO|YES),                     @DY45817 00920004
.*                         MFG=(NAME7 |(S,NAME8)| (R8) )       @D149DWK 00930004
.*    2. PLS :                                                 @D35EDWK 00940004
.*        ?LABEL: EXTRACT ID(PUB2|DVTY|BDY|CR|PUB|CPUID|MAP    @D14NDWK 00950004
.*                        |DEVICE|SENSE|GETVIS|PART|SVA        @D51MDGL 00960004
.*                        |SAINFO|ATLCUU)                      @D61MDGL 00970004
.*                        AREA((NAME1)|(ADDR(NAME1))|((R1)) )  @D35EDWK 00980004
.*                        LEN((NAME2) | ((R2)) )               @D35EDWK 00990004
.*                        DISP((NAME2) | ((R2)) )              @D35EDWK 01000004
.*                        SEL((NAME4)|(ADDR(NAME4))|((R4)) )OR @D35EDWK 01010004
.*                        SEP((NAME4)|(ADDR(NAME4))|((R4)) )   @D35EDWK 01020004
.*                        PID((NAME5)|(ADDR(NAME5))|((R5)) )   @D35EDWK 01030004
.*                        SID((NAME6)|(ADDR(NAME6))|((R6)) )   @D14NDWK 01040004
.*                        PU((NAME7)|(ADDR(NAME7))|((R7)) )    @D149DWK 01050004
.*                        MODE((S)|(P)|(T))                    @D35EDWK 01060004
.*                        LOC(RES|BELOW|ANY)                   @SUPSERV 01070004
.*                        MFG((NAME8)|(ADDR(NAME8))|((R8)) );  @D149DWK 01080004
.*                                                             @D35EDWK 01090004
.*                      OPERANDS :                                      01100004
.*                      ID = INDICATES REQUESTED INFORMATION            01110004
.*                      AREA = ADDR WHERE INFORMATION IS TO BE STORED   01120004
.*                      LEN  = LENGTH OF AREA                           01130004
.*                      DISP = DISPLACEMENT WITHIN PUB OR               01140004
.*                             PUB2 TABLE (DEFAULT IS ZERO)             01150004
.*                      SEL  = ADDR OF HALFWORD CONTAINING LOGICAL UNIT 01160004
.*                      SEP  = ADDR OF HALFWORD CONTAINING PHYSICAL     01170004
.*                             UNIT ('CUU')                             01180004
.*                      PID  = ADDR OF HALFWORD CONTAINING THE PIK      01190004
.*                             (DEFAULT : PIK OF PART. OF ISSUING PROG) 01200004
.*                      SID  = ADDR OF A 2 BYTE SYMBOLIC SPACE @D149DWK 01210004
.*                             IDENTIFIER. VALID VALUES ARE    @D149DWK 01220004
.*                             /370 MODE : R,S,N (N=1..9)      @D149DWK 01230004
.*                             E MODE AND VM : 1               @D149DWK 01240004
.*                             (DEFAULT : 1 )                  @D149DWK 01250004
.*                      PU   = ADDRESS OF A TWO BYTE FIELD     @D149DWK 01260004
.*                             CONTAINING THE PUB INDEX        @D149DWK 01270004
.*                             (X'0000'-X'00FE') FOR WHICH     @D149DWK 01280004
.*                             THE INFORMATION IS TO BE        @D149DWK 01290004
.*                             RETRIEVED                       @D149DWK 01300004
.*                      MODE = FURTHER MODIFIER OF THE KIND OF @D35EDWK 01310004
.*                             INFORMATION, THAT IS TO BE      @D35EDWK 01320004
.*                             RETURNED.                       @D35EDWK 01330004
.*                      LOC  = IS ONLY VALID FOR ID=GETVIS.    @SUPSERV 01340004
.*                             TELLS, IF THE INFORMATION IS    @SUPSERV 01350004
.*                             TO BE RETURNED FOR 24 BIT       @SUPSERV 01360004
.*                             ADDRESSABLE GETVIS AREA,        @SUPSERV 01370004
.*                             FOR THE AREA THAT CORRESPONDS   @SUPSERV 01380004
.*                             TO THE CALLERS PRESENT RESID.   @SUPSERV 01390004
.*                             MODE, OR FOR 31 BIT ADDRESSABLE @SUPSERV 01400004
.*                             GETVIS (WHICH INCLUDES 24 BIT   @SUPSERV 01410004
.*                             ADDRESSABLE PART).              @SUPSERV 01420004
.*                     RESET = IS ONLY VALID FOR ID=PART. IT   @DY45817 01430004
.*                             INDICATES IF THE USER WANTS THE @DY45817 01440004
.*                             HIGH-WATER-MARK TO BE RESET.    @DY45817 01450004
.*                      MFG  = ADDR OF 20 BYTE WORKAREA WHERE THE       01460004
.*                             PARMLIST FOR SVC IS TO BE STORED.        01470004
.*                                                                      01480004
.*                      THE S-TYPE NOTATION (S,NAMEX) WILL     @D35EDWK 01490004
.*                      GENERATE A LA- AND ST-INSTRUCTION      @D35EDWK 01500004
.*                      USING REGISTER 0.                      @D35EDWK 01510004
.*                                                             @D35EDWK 01520004
.*                                                             @D35EDWK 01530004
.* ----------------------------------------------------------- @D149DWK 01540004
.* | ID   | PUB2 | DVTY | BDY | CR  | PUB | CPUID| MAP |DEVICE @D149DWK 01550004
.* -------|--------------------------------------------------- @D149DWK 01560004
.* | AREA |  R   |  R   |  R  |  R  |  R  |  R   |  R  |   R   @D149DWK 01570004
.* | LEN  |  R   |  R   |  R  |  R  |  R  |  R   |  R  |   R   @D149DWK 01580004
.* | DISP |  O   | N/A  | N/A | N/A |  O  | N/A  | N/A |  N/A  @D149DWK 01590004
.* | SEL  |  R-  |  R-  | N/A | N/A |  R- | N/A  | N/A |   R-  @D149DWK 01600004
.* | SEP  |  R-  |  R-  | N/A | N/A |  R- | N/A  | N/A |   R-  @D149DWK 01610004
.* | PU   |  R-  |  R-  | N/A | N/A |  R- | N/A  | N/A |   R-  @D149DWK 01620004
.* | PID  |  O** |  O** |  O* | N/A |  O**| N/A  | N/A |   O** @D149DWK 01630004
.* | SID  | N/A  | N/A  | N/A | N/A | N/A | N/A  |  O  |  N/A  @D149DWK 01640004
.* | MODE | N/A  | N/A  |  O* | N/A | N/A |  O   | N/A |  N/A  @D51EMGL 01650004
.* | LOC  | N/A  | N/A  | N/A | N/A | N/A | N/A  | N/A |  N/A  @SUPSERV 01660004
.* | MFG  |  O   |  O   |  O  |  O  |  O  |  O   |  O  |   O   @D149DWK 01670004
.* ----------------------------------------------------------- @D149DWK 01680004
.*                                                             @D35EDWK 01690004
.* ----------------------------------------------------------- @D21LDRP 01700004
.* | ID   |SENSE |GETVIS| PART| SVA | SAINFO | ATLCUU  |       @D51MDGL 01710004
.* -------|--------------------------------------------------- @D21LDRP 01720004
.* | AREA |  R   |  R   |  R  |  R  |   R    |   R     |       @D21LDRP 01730004
.* | LEN  |  R   |  R   |  R  |  R  |   R    |   R     |       @D21LDRP 01740004
.* | DISP | N/A  | N/A  | N/A | N/A |  N/A   |  N/A    |       @D21LDRP 01750004
.* | SEL  |  R-  | N/A  | N/A | N/A |  N/A   |  N/A    |       @D21LDRP 01760004
.* | SEP  |  R-  | N/A  | N/A | N/A |  N/A   |  N/A    |       @D21LDRP 01770004
.* | PU   |  R-  | N/A  | N/A | N/A |  N/A   |  N/A    |       @D21LDRP 01780004
.* | PID  |  O** |  O   |  O  | N/A |  N/A   |  N/A    |       @D21LDRP 01790004
.* | SID  | N/A  | N/A  | N/A | N/A |  N/A   |  N/A    |       @D21LDRP 01800004
.* | MODE | N/A  |  O   | N/A | N/A |   R    |  N/A    |       @D61DDEM 01810004
.* | LOC  | N/A  |  O   | N/A | N/A |  N/A   |  N/A    |       @SUPSERV 01820004
.* | RESET| N/A  | N/A  |  O  | N/A |  N/A   |  N/A    |       @DY45817 01830004
.* | MFG  |  O   |  O   |  O  |  O  |   O    |   O     |       @D21LDRP 01840004
.* ----------------------------------------------------------- @D21LDRP 01850004
.*                                                             @D35EDWK 01860004
.*        R = REQUIRED                                         @D35EDWK 01870004
.*        R-= MUTUAL EXCLUSIVE                                 @D149DWK 01880004
.*        O = OPTIONAL                                         @D35EDWK 01890004
.*        N/A = NOT APPLICABLE                                 @D35EDWK 01900004
.*        * = IF PID SPECIFIED MODE=T IS NOT ALLOWED           @D21LDRP 01910004
.*        O** = OPTIONAL IF SEL SPECIFIED, N/A OTHERWISE       @D21LDRP 01920004
.*                                                             @D35EDWK 01930004
.*                                                                      01940004
.*  OUTPUT(ASSEMBLER)=  PARMLIST OF FOLLOWING FORMAT GENERATED @D35EDWK 01950004
.*                                                                      01960004
.*           REG1 --> 0 -------------------------------------           01970004
.*                      |  ID    |  FLAG  |   RESERVED      |           01980004
.*                    4 -------------------------------------           01990004
.*                      |    LENGTH       |   DISPLACEMENT  |           02000004
.*                    8 -------------------------------------           02010004
.*                      |        ADDR (AREA)                |           02020004
.*                   12 -------------------------------------           02030004
.*                      |        ADDR ((SEL) | (SEP) | (PU))|  &D149DWK 02040004
.*                   16 -------------------------------------           02050004
.*                      |        ADDR ((PIK) | (SID))       |  @D149DWK 02060004
.*                      -------------------------------------           02070004
.*                                                                      02080004
.*                                                                      02090004
.*                    ID = X'01' FOR PUB2                      @D35EDWK 02100004
.*                         X'02' FOR DVTY                      @D51IDGL 02110004
.*                         X'03' FOR BDY                       @D35EDWK 02120004
.*                         X'04' FOR CR                        @D35EDWK 02130004
.*                         X'05' FOR PUB                       @D35EDJO 02140004
.*                         X'06' FOR CPUID                     @D356DWK 02150004
.*                         X'07' FOR MAP                       @D149DWK 02160004
.*                         X'08' FOR DEVICE                    @D149DWK 02170004
.*                         X'09' FOR SENSE                     @D21LDRP 02180004
.*                         X'0A' FOR GETVIS                    @D21LDRP 02190004
.*                         X'0B' FOR PART                      @D51IDGL 02200004
.*                         X'0C' FOR SVA                       @D61IDGL 02210004
.*                         X'0D' FOR SAINFO                    @D61DDGL 02220004
.*                         X'0E' FOR ATLCUU                    @D61DDGL 02230004
.*                                                             @D35EDWK 02240004
.*                    FLAG: FOR DEVICE RELATED SERVICES:       @D51IDGL 02250004
.*                          NO MODE OPERAND POSSIBLE,          @D51IDGL 02260004
.*                    FLAG = X'00' SEL WAS PROVIDED            @D51IDGL 02270004
.*                           X'01' SEP WAS PROVIDED            @D51IDGL 02280004
.*                           X'02' PU  WAS PROVIDED            @D51IDGL 02290004
.*                          FOR EXTRACT ID=BDY FLAG REFLECTS   @D51IDGL 02300004
.*                          THE MODE INDICATOR:                @D51IDGL 02310004
.*                    FLAG = X'00' MODE OMMITTED (= MODE T)    @D51IDGL 02320004
.*                           X'01' MODE T (TEMPORARY BOUND.)   @D51IDGL 02330004
.*                           X'02' MODE S (NO MORE SUPPORTED)  @D51IDGL 02340004
.*                           X'03' MODE P (PERMANENT BOUND.)   @D51IDGL 02350004
.*                           X'04' MODE SYSP (SYSTEM)          @D51IDGL 02360004
.*                          FOR EXTRACT ID=GETVIS              @D51IDGL 02370004
.*                    FLAG = X'00' MODE OMMITTED MEANS         @D51IDGL 02380004
.*                                 IF PID = 0 SUPPLIED :       @D51IDGL 02390004
.*                                    SVA GETVIS REQUEST       @D51IDGL 02400004
.*                                 ELSE SAME AS MODE = PT      @D51IDGL 02410004
.*                           X'01' MODE PT (PARTITION GETVIS)  @D51IDGL 02420004
.*                           X'02' MODE SP (DYN.SPACE GETVIS)  @D51IDGL 02430004
.*                           X'04' MODE SV (SVA GETVIS)        @D51IDGL 02440004
.*                                 LOC  RES IS DEFAULT         @SUPSERV 02450004
.*                           X'10' LOC  BELOW                  @SUPSERV 02460004
.*                           X'20' LOC  ANY                    @SUPSERV 02470004
.*                           X'40' RESET=YES                   @DY45817 02480004
.*                          FOR EXTRACT ID=CPUID               @D51EMGL 02490004
.*                    FLAG = X'00' MODE WAS OMITTED            @D51EMGL 02500004
.*                           X'01' MODE=REAL WAS SPECIFIED     @D51EMGL 02510004
.*                          FOR EXTRACT ID=SAINFO              @D61DDGL 02520004
.*                    FLAG = X'03' MODE WAS PUBDEVTY           @D61DDGL 02530004
.*                           X'04' MODE WAS EXTCODE            @D61DDGL 02540004
.*                                                             @D35EDWK 02550004
.*                                                             @D35EDWK 02560004
.*  OUTPUT(EXECUTION)=  ID = PUB2                              @D35EDWK 02570004
.*                      PUB2 TABLE ENTRY OF SPECIFIED DEVICE   @D35EDWK 02580004
.*                      MOVED TO USER AREA                     @D35EDWK 02590004
.*                                                             @D35EDWK 02600004
.*                      ID = PUB                               @D35EDJO 02610004
.*                      PUB TABLE ENTRY OF SPECIFIED DEVICE    @D35EDJO 02620004
.*                      MOVED TO USER AREA                     @D35EDJO 02630004
.*                                                             @D35EDWK 02640004
.*                      ID = DVTY                              @D35EDWK 02650004
.*                       SAME AS IF ID=PUB AND                 @D35EDJO 02660004
.*                       DISP=PUBDEVTY HAD BEEN SPECIFIED.     @D35EDWK 02670004
.*                                                             @D35EDWK 02680004
.*                      ID = BDY                               @D35EDWK 02690004
.*                      DEPENDING ON THE MODE PARAMETER        @D35EDWK 02700004
.*                      POSSIBLE MODES ARE                     @D35EDWK 02710004
.*                                                             @D35EDWK 02720004
.*                      MODE=TEMP   FOR TEMPORARY BOUNDARIES   @D35EDWK 02730004
.*                                  OF A PARTITION             @D35EDWK 02740004
.*                                                             @D35EDWK 02750004
.*        MAPPING BY:   MAPEXTR ID=BDY,MODE=TEMP               @D35EDWK 02760004
.*                                                             @D35EDWK 02770004
.*                      MODE=PERM   FOR PERMANENT BOUNDARIES   @D35EDWK 02780004
.*                                  OF A PARTITION             @D35EDWK 02790004
.*        MAPPING BY:   MAPEXTR ID=BDY,MODE=PERM               @D35EDWK 02800004
.*                                                             @D35EDWK 02810004
.*                      MODE=T      (INTENTION LIKE TEMP, BUT  @D35EDWK 02820004
.*                                  NOT EXTENDED ANY MORE)     @D35EDWK 02830004
.*                      MODE=P      (INTENTION LIKE PERM, BUT  @D35EDWK 02840004
.*                                  NOT EXTENDED ANY MORE)     @D35EDWK 02850004
.*                                                             @D35EDWK 02860004
.*                                                             @D35EDWK 02870004
.*                      ID = CR                                @D35EDWK 02880004
.*                      CONTROL REGISTERS FROM R0 TO RF ARE    @D35EDWK 02890004
.*                      STORED IN THE USER AREA.               @D35EDWK 02900004
.*                                                             @D35EDWK 02910004
.*                      ID = CPUID                             @D356DWK 02920004
.*                      CPUID AND SYSLOG ID STORED IN THE      @D356DWK 02930004
.*                      USER AREA. IN CASE THE USER SPECIFIED  @D51EMGL 02940004
.*                      MODE=REAL WITH THE REQUEST, THE REAL   @D51EMGL 02950004
.*                      CPUID HE IS RUNNING ON IS RETURNED,    @D51EMGL 02960004
.*                      INSTEAD OF THE SIMULATED CPUID OF THE  @D51EMGL 02970004
.*                      VIRTUAL MACHINE.                       @D51EMGL 02980004
.*                                                             @D356DWK 02990004
.*                      ID = MAP                               @D149DWK 03000004
.*                      A LIST OF PARTITIONS BELONGING TO A    @D149DWK 03010004
.*                      GIVEN ADDRESS SPACE IS RETURNED IN     @D149DWK 03020004
.*                      THE SPECIFIED AREA. END OF PIK LIST IS @D149DWK 03030004
.*                      INDICATED BY 0.                        @D149DWK 03040004
.*                                                             @D149DWK 03050004
.*                      ID = DEVICE                            @D149DWK 03060004
.*                      A 10 BYTE FIELD CONSISTING OF 2 BYTE   @D149DWK 03070004
.*                      CUU FIELD, 1 BYTE PUB DEVICE TYPE CODE @D21IDRP 03080004
.*                      AND 7 BYTE DEVICE INFORMATION          @D21IDRP 03090004
.*                      AS RETRIEVED BY SENSE-ID COMMAND IS    @D149DWK 03100004
.*                      RETURNED. THE 7 BYTE FIELD CONTAINS    @D21IDRP 03110004
.*                      BINARY ZEROS IF THE DEVICE DOES NOT    @D149DWK 03120004
.*                      SUPPORT THE SENSE-ID COMMAND.          @D149DWK 03130004
.*                      IF THE LENGTH PROVIDED BY THE USER IS  @D21IDRP 03140004
.*                      LARGE ENOUGH, THE 2-BYTE OBR-RECORD ID @D21IDRP 03150004
.*                      AND THE 1 BYTE MDR-RECORD ID IS        @D21IDRP 03160004
.*                      PROVIDED IN ADDITION.                  @D21IDRP 03170004
.*                      FOR QDIO DEVICES:                      @DSCSI   03171005
.*                      ADDITIONAL INFORMATION WILL BE PROVIDED@DSCSI   03172005
.*                      AS OUTLINED IN DETAIL IN THE MAPEXTR   @DSCSI   03173005
.*                      ID=DEVICE MACRO                        @DSCSI   03174005
.*                                                             @D21LDRP 03180004
.*                      ID = SENSE                             @D21LDRP 03190004
.*                      A FIELD CONSISTING OF THE AVAILABLE    @D21LDRP 03200004
.*                      SENSE INFORMATION IN THE USER SPECIFIED@D21IDRP 03210004
.*                      LENGTH UP TO THE MAXIMUM SENSE LENGTH  @D21IDRP 03220004
.*                                                             @D21..RP 03230004
.*                      ID = GETVIS                            @D21..RP 03240004
.*                      A 20 BYTE FIELD CONSISTING OF ACTUAL   @D21LDRP 03250004
.*                      GETVIS INFORMATION AS FOLLOWS:         @D21LDRP 03260004
.*                      1ST FULLWORD: LENTH OF GETVIS CONTROL  @D21LDRP 03270004
.*                           INFORMATION (IN BYTES)            @D21LDRP 03280004
.*                      2ND FULLWORD: MAX. GETVIS-SPACE (IN    @D21LDRP 03290004
.*                           BYTES) EVER USED UP TO NOW (INCL. @D21LDRP 03300004
.*                           CONTROL INFORMATION).             @D21LDRP 03310004
.*                      3RD FULLWORD: FREE GETVIS-SPACE (IN    @D21LDRP 03320004
.*                           BYTES).                           @D21LDRP 03330004
.*                      4TH FULLWORD: USED GETVIS-SPACE (IN    @D21LDRP 03340004
.*                           BYTES) INCL. CONTROL INFORMATION. @D21LDRP 03350004
.*                      5TH FULLWORD: LARGEST CONTIGOUS FREE   @D21LDRP 03360004
.*                           GETVIS AREA (IN BYTES)            @D21LDRP 03370004
.*                      THE GETVIS REQUEST CAN BE ISSUED FOR   @D51IDGL 03380004
.*                      EITHER A PARTITION GETVIS AREA, A      @D51IDGL 03390004
.*                      SPACE GETVIS AREA OF A DYNAMIC PAR-    @D51IDGL 03400004
.*                      TITION OR THE SVA. THE SVA WAS FORMERLY@D51IDGL 03410004
.*                      INDICATED BY A PIK OF 0. THIS INTERFACE@D51IDGL 03420004
.*                      IS STILL SUPPORTED, BUT SHOULD NO MORE @D51IDGL 03430004
.*                      BE USED. THE KIND OF REQUEST IS NOW    @D51IDGL 03440004
.*                      INDICATED BY THE MODE KEYWORD.         @D51IDGL 03450004
.*                      MODE = PT : PARTITION GETVIS           @D51IDGL 03460004
.*                      MODE = SP : SPACE GETVIS               @D51IDGL 03470004
.*                      MODE = SV : SVA GETVIS                 @D51IDGL 03480004
.*                                                             @D51IDGL 03490004
.*                      ID = PART                              @D51IDGL 03500004
.*                      THIS SERVICE SHOULD ONLY BE USED BY    @D51IDGL 03510004
.*                      IUI. IT PROVIDES ALL RELEVANT          @D51IDGL 03520004
.*                      BOUNDARIES OF A PARTITION PLUS ALL     @D51IDGL 03530004
.*                      AVAILABLE PARTITION AND DYNAMIC SPACE  @D51IDGL 03540004
.*                      GETVIS INFORMATION. THE MAPPING IS     @D51IDGL 03550004
.*                      SUPPLIED BY                            @D51IDGL 03560004
.*                      MAPEXTR  ID=PART(,DSECT=YES|NO)        @D51IDGL 03570004
.*                                                             @D51IDGL 03580004
.*                      ID = SVA                               @D51MDGL 03590004
.*                      THIS SERVICE SHOULD ONLY BE USED BY    @D51MDGL 03600004
.*                      IUI. IT SUPPLIES ALL INFORMATION       @D51MDGL 03610004
.*                      ABOUT SVA BOUNDARIES AND VALUES        @D51MDGL 03620004
.*                      MAPPING BY                             @D51MDGL 03630004
.*                      MAPEXTR ID=SVA(,DSECT=YES|NO)          @D51MDGL 03640004
.*                                                             @D51MDGL 03650004
.*                      ID = SAINFO                            @D61DDGL 03660004