         MACRO                                                          00050052
&NAME    FCEPGOUT                                                       00100000
         GBLC  &SYSSPLV                                        @D52GDVB 00122252
         LCLA  &AL1,&AL2,&AL3                                           00144452
         LCLC  &CFCT                                           @D52GDVB 00166652
         LCLC  &CSVC                                           @D52GDVB 00188852
         LCLB  &BANY                                           @D52GDVB 00211052
.*************************************************************          00233252
.* IBM DISK OPERATING SYSTEM                                            00255452
* SUPERVISOR - FCEPGOUT  5686-032-06                           @D52GDVB 00277752
.************************************************************* @D31UDRP 00300000
.*                                                           *          00350052
.*       LICENSED MATERIALS - PROPERTY OF IBM                * @D31UDRP 00400052
.*       THIS MACRO IS "RESTRICTED MATERIALS OF IBM"         * @D31UDRP 00450052
.*       5686-032 (C) COPYRIGHT IBM CORP. 1977, 1992         * @D52GDVB 00500052
.*       SEE COPYRIGHT INSTRUCTIONS                          * @D31UDRP 00550052
.*                                                           *          00600052
.*************************************************************          00650052
         AIF   (N'&SYSLIST EQ 0 OR T'&SYSLIST(1) EQ 'O').ERR01 @D52GDVB 00700052
&AL2     SETA  N'&SYSLIST                                               00750052
&AL2     SETA  (&AL2/2)*2                                               00800052
&AL1     SETA  1                                                        00850052
         SPLEVEL TEST                                          @D52GDVB 00900052
         AIF   ('&SYSSPLV' NE '1').ESAFRM                      @D52GDVB 00950052
&CSVC    SETC  '86'                  SVC NUMBER FCEPGOUT   86  @D52GDVB 01000052
         AGO   .NAME                                           @D52GDVB 01050052
.ESAFRM  ANOP                                                  @D52GDVB 01100052
&BANY    SETB  0                     OPTION : ABOVE 16MB   80  @D52GDVB 01150052
&CFCT    SETC  '4'                   FUNCTION CODE: FCPGT  04  @D52GDVB 01200052
&CSVC    SETC  '121'                 SVC NUMBER           121  @D52GDVB 01250052
.NAME    ANOP                                                  @D52GDVB 01300052
         AIF   (T'&NAME EQ 'O' ).NONAME                        @D52GDVB 01350052
&NAME    DS    0H                                                       01400052
.NONAME  ANOP                                                  @D52GDVB 01450052
         AIF   (N'&SYSLIST EQ 1).LISTN                                  01500052
         CNOP  0,4                                                      01550052
         LA    1,*+8 .            LOAD ADDR OF LIST                     01600052
         B     *+4*(&AL2+1)+4                                  @D52GDVB 01650052
.NRANGE  ANOP                                                           01700052
         AIF   ('&SYSLIST(&AL1)'(1,1) NE '(').C1               @DM01262 01750052
         MNOTE 3,'REGISTER NOTATION FOR BEGIN OPERAND INVALID ---- END *01800052
               INDICATION GENERATED'                           @D52GDVB 01850052
         DC    X'80000000'                                     @D52GDVB 01900052
         AGO   .C2                                             @DM01262 01950052
.C1      ANOP                                                  @DM01262 02000052
         DC    A(&SYSLIST(&AL1))                                        02050052
.C2      AIF   ('&SYSLIST(&AL1+1)'(1,1) NE '(').C3             @DM01262 02100052
         MNOTE 3,'REGISTER NOTATION FOR END OPERAND INVALID ---- OPERAN*02150052
               D IGNORED'                                      @D52GDVB 02200052
         DC    A(0) .                                          @DM01262 02250052
         AGO   .C4                                             @DM01262 02300052
.C3      ANOP                                                  @DM01262 02350052
         DC    A((&SYSLIST(&AL1+1))-(&SYSLIST(&AL1)))          @DM03762 02400052
.C4      ANOP                                                  @DM01262 02450052
&AL1     SETA  &AL1+2                                                   02500052
         AIF   (N'&SYSLIST GT &AL1).NRANGE                              02550052
         AIF   (N'&SYSLIST LT &AL1).RLOCHCK                    @D52GDVB 02600052
         MNOTE 3,'ODD NUMBER OF BEGIN/END OPERAND(S) SPECIFIED ---- LAS*02650052
               T ONE IGNORED'                                  @D52GDVB 02700052
.RLOCHCK ANOP                                                  @D52GDVB 02750052
         DC    X'80000000'                                     @D52GDVB 02800052
         AGO   .CODGEN                                         @D52GDVB 02850052
.*                                                             @D52GDVB 02900052
.LISTN   AIF   ('&SYSLIST(1)'(1,1) EQ '(').R1                           02950052
         LA    1,&SYSLIST(1)                                   @D52GDVB 03000052
         AGO   .CODGEN                                         @D52GDVB 03050052
.*                                                             @D52GDVB 03100052
.R1      ANOP                                                           03150052
&AL3     SETA  K'&SYSLIST(1)                                   @D52GDVB 03200052
         AIF   ('&SYSLIST(1)'(&AL3,1) NE ')').ERR02            @D52GDVB 03250052
.*                                                             @D52GDVB 03300052
         AIF   ('&SYSLIST(1)'(2,1) EQ '1').CODGEN              @D52GDVB 03350052
         LR    1,&SYSLIST(1,1)                                          03400052
.CODGEN  ANOP                                                  @D52GDVB 03450052
         AIF   ('&SYSSPLV' EQ '1').SVCGEN                      @D52GDVB 03500052
         LA    15,&CFCT.(,0)      FUNCTION CODE                @D52GDVB 03550052
.*                                                             @D52GDVB 03600052
.SVCGEN  ANOP                                                  @D52GDVB 03650052
         SVC   &CSVC              SVC FCEPGOUT                 @D52GDVB 03700052
         MEXIT                                                 @D52GDVB 03750052
.*                                                             @D52GDVB 03800052
.ERR01   ANOP                                                  @D52GDVB 03850052
         MNOTE 7,'BEGIN/END OPERAND(S) MISSING OR INVALID ---- GENERATI*03900052
               ON TERMINATED'                                  @D52GDVB 03950052
         MEXIT                                                 @D52GDVB 04000052
.*                                                             @D52GDVB 04050052
.ERR02   ANOP                                                  @D52GDVB 04100052
         MNOTE 7,'RIGHT PARANTHESES IN LIST OPERAND MISSING  ---- GENER*04150052
               ATION TERMINATED'                               @D52GDVB 04200052
         MEND                                                           04250052
