         MACRO                                                          00050000
&NAME    FEOVD &FILEN                                                   00100000
.* IBM DISK OPERATING SYSTEM                                            00150000
         AGO   .ZZZ                                            @U31TUJS 00200000
*    THIS MACRO IS "RESTRICTED MATERIALS OF IBM"               @U31TUJS 00250000
*    5686-007 (C) COPYRIGHT IBM CORP. 1977,1992                @D52VDAK 00300052
*    ALL RIGHTS RESERVED                                       @U31TUJS 00350000
*    LICENSED MATERIALS - PROPERTY OF IBM                      @U31TUJS 00400000
*    SEE COPYRIGHT INSTRUCTIONS, G120-2083                     @U31TUJS 00450000
.ZZZ     ANOP                                                  @U31TUJS 00500000
* IOCS - FEOVD - 5686-007-02-C550                              @D52VDAK 00550052
         AIF   ('&FILEN' NE '').F1                                      00600000
         MNOTE 2,'NO FILE NAME SPECIFIED, MACRO IGNORED'                00650000
         MEXIT                                                          00700000
.F1      ANOP                                                           00750000
         CNOP  0,4                                                      00800000
&NAME    DS    0F                                                       00850000
         AIF   ('&FILEN'(1,1) NE '(').F2                                00900000
         ST    &FILEN,IJJO&SYSNDX+4                                     00950000
.F2      LA    1,=CL8'$$BOSDEV'                                         01000000
IJJO&SYSNDX BAL 0,*+8                                                   01050000
         AIF   ('&FILEN'(1,1) NE '(').F3                                01100000
         DC    F'0'                                                     01150000
         AGO   .F4                                                      01200000
.F3      DC    A(&FILEN)                                                01250000
.F4      XR    14,14               SET LENGTH CODE TO 1        @D52VDAK 01262552
         BALR  14,0           GET NEXT INSTRUCTION ADDRESS AND @D52VDAK 01275052
*                             SET HIGH ORDER BIT IF AMODE 31   @D52VDAK 01287552
         LTR   14,14          RUNNING IN 24 BIT MODE ?         @D52VDAK 01300052
         BP    8(,14)         YES,OK                           @D52VDAK 01312552
         SVC   130            EXECUTION MODE VIOLATION         @D52VDAK 01325052
         SVC   2                                                        01337552
         MEND                                                           01350000
