         MACRO                                                          00050000
&NAME    FREE  &FLNAME                                                  00100000
.*                                                                      00150000
         AGO   .ZZZ                                                     00200000
*********************************************************************** 00250000
*                                                                     * 00300000
*        THIS MACRO IS "RESTRICTED MATERIALS OF IBM"                  * 00350000
*        5686-007 (C) COPYRIGHT IBM CORP. 1977,1988                   * 00400000
*        ALL RIGHTS RESERVED                                          * 00450000
*        LICENSED MATERIALS - PROGRAM PROPERTY OF IBM                 * 00500000
.*       SEE COPYRIGHT INSTRUCTIONS, G120-2083                        * 00550000
*                                                                     * 00600000
*********************************************************************** 00650000
.ZZZ ANOP                                                               00700000
         AIF   ('&NAME' EQ '').NOMSG                                    00750000
&NAME    DS    0H                                                   3-5 00800000
.NOMSG   ANOP                                                           00850000
         AIF   ('&FLNAME' EQ '').M1     NO PARAMETER SPECIFIED          00900000
         AIF   ('&FLNAME'(1,1) EQ '(').R1     REGISTER SPECIFIED        00950000
         L     1,=A(&FLNAME)                                            01000000
         AGO   .C2                                                      01050000
.R1      AIF   ('&FLNAME'(2,2) EQ '1)').C2                              01100000
         LR    1,&FLNAME(1)                                             01150000
.C2      ANOP                                                           01200000
         L     15,16(1)                                                 01250000
         BAL   14,44(15)                                                01300000
         MEXIT                                                          01350000
.M1      MNOTE 5,'NO FILENAME SPECIFIED - MACRO IGNORED'                01400000
         MEND                                                           01450000
