         MACRO                                                          00050000
&NAME    GETDADR &ACCW,&DISPL                                           00100000
.*                                                                      00150000
*********************************************************************** 00200000
*                                                                       00250000
.*       IBM VSE / ADVANCED FUNCTIONS                          @D31UDGN 00300000
*        SUPERVISOR - GETDADR - 5686-007-06-C440               @D31UDGN 00350000
.*                                                                      00400000
         AGO   .CPRIGHT                                                 00450000
.*                                                                      00500000
*        THIS MACRO IS "RESTRICTED MATERIALS OF IBM"           @D31UDGN 00550000
*        5686-007 (C) COPYRIGHT IBM CORP. 1979, 1989           @D31UDGN 00600000
*        ALL RIGHTS RESERVED                                   @D31UDGN 00650000
*        LICENSED MATERIALS - PROGRAM PROPERTY OF IBM          @D31UDGN 00700000
.*       SEE COPYRIGHT INSTRUCTIONS, G120-2083                 @D31UDGN 00750000
.*                                                                      00800000
.CPRIGHT ANOP                                                           00850000
*                                                                       00900000
*********************************************************************** 00950000
.*                                                                      01000000
         AIF   (T'&ACCW EQ 'O' OR T'&DISPL EQ 'O').ERR                  01050000
         AIF   ('&ACCW'(1,1) EQ '(').R1                                 01100000
&NAME    L     8,=A(&ACCW) .      LOAD ADDR. OF CCW                     01150000
         AGO   .TSTOP2                                                  01200000
.R1      AIF   ('&ACCW'(2,2) EQ '8)').TSTOP2                            01250000
&NAME    LR    8,&ACCW(1) .       LOAD ADDR. OF CCW                     01300000
.TSTOP2  AIF    ('&DISPL'(1,1) EQ '(').R2                               01350000
         L     0,=A(&DISPL) .     GET DISPL.IN I/O AREA                 01400000
.GEN     SVC   60 .               GET DATA ADDRESS               .      01450000
         MEXIT                                                          01500000
.R2      AIF   ('&DISPL'(2,3) EQ '0)').GEN                              01550000
         LR    0,&DISPL(1) .      GET DISPL. IN I/O AREA                01600000
         AGO   .GEN                                                     01650000
.ERR     MNOTE 5,'INCORRECT PARAMETER SPECIFICATION, MACRO IGNORED'     01700000
         MEND                                                           01750000
