         MACRO                                                          00050000
&NAME    GETIME &PAR,&LOCTN,&MFG=,&CLOCK=                      @D3CZDOW 00100000
.*                                                                      00150000
.* /* START OF SPECIFICATIONS ********************************          00200000
.*                                                                      00250000
.*01* MODULE-TYPE = SUPERVISOR - USER INTERFACE MACRO                   00300000
.*                                                                      00350000
.*01* DECRIPTIVE NAME = GET TIME OF DAY MACRO                           00400000
.*                                                                      00450000
.**** END OF SPECIFICATIONS ******************************************* 00500000
.*                                                                      00550000
         LCLA  &TMF                                            @D3CZDOW 00600000
         LCLB  &IND(8)                                         @D3CZDOW 00650000
         LCLC  &IMF                                            @D35XDGS 00700000
         LCLC  &RMF                                            @D35XDGS 00750000
.*                                                                      00800000
         AGO   .ZZZ                                                     00850000
*********************************************************************** 00900000
*                                                                     * 00950000
*        THIS MACRO IS "RESTRICTED MATERIALS OF IBM"                  * 01000000
*        5686-007 (C) COPYRIGHT IBM CORP. 1981,1988                   * 01050000
*        ALL RIGHTS RESERVED                                          * 01100000
*        LICENSED MATERIALS - PROGRAM PROPERTY OF IBM                 * 01150000
.*       SEE COPYRIGHT INSTRUCTIONS, G120-2083                        * 01200000
*                                                                     * 01250000
*********************************************************************** 01300000
.ZZZ ANOP                                                               01350000
         AIF   ('&LOCTN' NE 'GMT').LOCAL                            4-0 01400000
&IND(8) SETB 1                                                 @D3CZDOW 01450000
         AGO   .LOCOK                                               4-0 01500000
.LOCAL   AIF   ('&LOCTN' EQ 'LOCAL').LOCOK                          4-0 01550000
         AIF   ('&LOCTN' EQ '').LOCOK                               4-0 01600000
         MNOTE 3,'INVALID SPECIFICATION - LOCAL ASSUMED'            4-0 01650052
.LOCOK   AIF   ('&PAR' EQ 'TU').ANOP                                4-0 01700000
         AIF   ('&PAR' EQ 'BINARY').ANOP                            4-0 01750000
         AIF   ('&PAR' EQ 'STANDARD').ANOP                          4-0 01800000
         AIF   ('&PAR' EQ 'MIC').ANOP                          @D3CZDOW 01850000
         AIF   ('&PAR' EQ '').ANOP                                  4-0 01900000
         MNOTE 3,'INVALID SPECIFICATION - STANDARD ASSUMED'         4-0 01950052
.ANOP    ANOP                                                       4-0 02000000
         AIF   (T'&CLOCK EQ 'O').NOVALUE                       @D3CZDOW 02050000
         AIF   ('&CLOCK' EQ 'YES').VALUE                       @D3CZDOW 02100000
         MNOTE 4,'INVALID CLOCK SPECIFICATION - PARAMETER IGNORED'     X02150000
                                                               @D3CZDOW 02200000
         AGO   .NOVALUE                                        @D3CZDOW 02250000
.VALUE   ANOP                                                  @D3CZDOW 02300000
&IND(5)  SETB  1                                               @D3CZDOW 02350000
.NOVALUE ANOP                                                  @D3CZDOW 02400000
         AIF   ('&PAR' NE 'MIC').NOMIC                         @D3CZDOW 02450000
&IND(6)  SETB  1                                               @D3CZDOW 02500000
.NOMIC   ANOP                                                  @D3CZDOW 02550000
&IND(1)  SETB  0                                               @D3CZDOW 02600000
&IND(2)  SETB  0                                               @D3CZDOW 02650000
&IND(3)  SETB  0                                               @D3CZDOW 02700000
&IND(4)  SETB  0                                               @D3CZDOW 02750000
&IND(7)  SETB  0                                               @D3CZDOW 02800000
&NAME    SVC   34                      GET TIMER VALUE IN TU'S      4-0 02850000
         DC    X'07'                   BCR OPCODE = NOP             4-0 02900000
         DC    B'&IND(1).&IND(2).&IND(3).&IND(4).&IND(5).&IND(6).&IND(7X02950000
               ).&IND(8)'                                      @D3CZDOW 03000000
         AIF   ('&PAR' EQ 'MIC').MXIT                          @D3CZDOW 03050000
         AIF   ('&PAR' NE 'TU').BIN                                 4-0 03100000
.MXIT    ANOP                                                  @D3CZDOW 03150000
         MEXIT                                                      4-0 03200000
.*                                     END IF TU SPECIFIED          4-0 03250000
.BIN     SR    0,0                                                  4-0 03300000
         D     0,=F'300'               SECONDS IN REG 1             4-0 03350000
         AIF   ('&PAR' NE 'BINARY').STA                             4-0 03400000
         MEXIT                                                      4-0 03450000
.*                                     END IF BINARY SPECIFIED      4-0 03500000
.STA     AIF   (T'&MFG NE 'O').STA1                            @D35XDGS 03550000
         CNOP  2,8                                                  4-0 03600000
         SR    0,0                                                  4-0 03650000
         D     0,=F'60'                SEC IN REG 0, MIN IN REG 1   4-0 03700000
         CVD   0,*+56                                               4-0 03750000
         MVC   *+62(2),*+58            SAVE PACKED SECONDS- XXXXSSS-4-0 03800000
         SR    0,0                                                  4-0 03850000
         D     0,=F'60'                MIN IN REG 0, HRS IN REG 1   4-0 03900000
         CVD   0,*+40                                               4-0 03950000
         MVO   *+44(2),*+42(2)         MM+XSSS-                     4-0 04000000
         MVO   *+38(3),*+38(1)         000MMSS-                     4-0 04050000
         CVD   1,*+24                                               4-0 04100000
         L     1,*+24                                               4-0 04150000
         SRL   1,4                                                  4-0 04200000
         SLL   1,20                                                 4-0 04250000
         O     1,*+16                                               4-0 04300000
         B     *+16                                                 4-0 04350000
         DC    D'0'                                                 4-0 04400000
         DC    F'0'                                                 4-0 04450000
         MEXIT                                                 @D35XDGS 04500000
.STA1    AIF   ('&MFG'(1,1) EQ '(').MFDYN                      @D35XDGS 04550000
&IMF     SETC  '&MFG'                                          @D35XDGS 04600000
&TMF     SETA  1              1= A-TYPE                        @D35XDGS 04650000
         AGO   .MF1                                            @D35XDGS 04700000
.MFDYN   AIF   ('&MFG'(1,3) EQ '(S,').MFSTYP                   @D35XDGS 04750000
&RMF     SETC  '&MFG'(2,K'&MFG-2)                              @D35XDGS 04800000
&IMF     SETC  '0'.'&MFG'                                      @D35XDGS 04850000
&TMF     SETA  2              2= REGISTER                      @D35XDGS 04900000
         XC    0(6,&RMF),0(&RMF)       CLEAR WORK FIELDS       @D35XDGS 04950000
         AGO   .MF2                                            @D35XDGS 05000000
.MFSTYP  ANOP                                                  @D35XDGS 05050000
&IMF     SETC  '&MFG'(4,K'&MFG-4)                              @D35XDGS 05100000
&TMF     SETA  4              4= S-TYPE                        @D35XDGS 05150000
.MF1     XC    &IMF.(6),&IMF           CLEAR WORK FIELDS       @D35XDGS 05200000
.MF2     ANOP                                                  @D35XDGS 05250000
         SR    0,0                                             @D35XDGS 05300000
         D     0,=F'60'                SEC IN REG 0, MIN IN REG 1       05350000
         CVD   0,&IMF                                          @D35XDGS 05400000
         AIF   (&TMF NE 2).STA2                                @D35XDGS 05450000
         MVC   10(2,&RMF),6(&RMF)      SAVE PACKED SECONDS- XXXXSSS-    05500000
         AGO   .STA3                                           @D35XDGS 05550000
.STA2    MVC   &IMF+10(2),&IMF+6       SAVE PACKED SECONDS- XXXXSSS-    05600000
.STA3    SR    0,0                                             @D35XDGS 05650000
         D     0,=F'60'                MIN IN REG 0, HRS IN REG 1       05700000
         CVD   0,&IMF                                          @D35XDGS 05750000
         AIF   (&TMF NE 2).STA4                                @D35XDGS 05800000
         MVO   8(2,&RMF),6(2,&RMF)     MM+XSSS-                @D35XDGS 05850000
         MVO   8(3,&RMF),8(1,&RMF)     000MMSS-                @D35XDGS 05900000
         AGO   .STA5                                           @D35XDGS 05950000
.STA4    MVO   &IMF+8(2),&IMF+6(2)     MM+XSSS-                @D35XDGS 06000000
         MVO   &IMF+8(3),&IMF+8(1)     000MMSS-                @D35XDGS 06050000
.STA5    CVD   1,&IMF                                          @D35XDGS 06100000
         L     1,4+&IMF                                        @D35XDGS 06150000
         SRL   1,4                                             @D35XDGS 06200000
         SLL   1,20                                            @D35XDGS 06250000
         O     1,8+&IMF                                        @D35XDGS 06300000
.END     MEND                                                  @D35XDGS 06350000
