         MACRO                                                          00050000
&NAME    GETJA &ACTION=,&PART=                                          00100000
.*                                                             @D14BDBC 00150000
         GBLB  &BGETJA1                                        @D14BDBC 00200000
         LCLB  &BUPDT,&BCLRT,&BRST,&BACT,&BPART                @D14BDBC 00250000
.*                                                             @D14BDBC 00300000
***************************************************************         00350000
*                                                             *@D51MDGL 00400000
.*       IBM VSE / ADVANCED FUNCTIONS                         *@D51MDGL 00450000
*        SUPERVISOR - GETJA - 5686-007-06-C44                 *@D51MDGL 00500000
.*                                                                      00550000
         AGO   .CPRIGHT                                                 00600000
.*                                                                      00650000
*        LICENSED MATERIALS - PROGRAM PROPERTY OF IBM         *@D51MDGL 00700000
*        THIS MACRO IS "RESTRICTED MATERIALS OF IBM"          *@D51MDGL 00750000
*        5686-007 (C) COPYRIGHT IBM CORP. 1984, 1989          *@D51MDGL 00800000
*        SEE COPYRIGHT INSTRUCTIONS                           *@D51MDGL 00850000
.*                                                                      00900000
.CPRIGHT ANOP                                                           00950000
*                                                             *@D51MDGL 01000000
***************************************************************         01050000
.*                                                                      01100000
.* /*START OF SPECIFICATIONS ****************************************** 01150000
.*                                                                      01200000
.*01* MODULE-TYPE = MACRO                                               01250000
.*                                                                      01300000
.*****VERSION 11/09/81 ********                                         01350000
.*                                                                      01400000
.*01* DESCRIPTIVE NAME = UPDATE JA-TABLES                               01450000
.*                                                                      01500000
.*01* NOTES = CHANGE ACTIVITY                                           01550000
.*    CHANGE DESCRIPTIONS                                               01600000
.*    NEW MODULE - FIRST RELEASE 35                            @D35EDFG 01650000
.*    ADAPTION TO        RELEASE 2.1                           @D14BDBC 01700000
.*                                                             @D14BDBC 01750000
.**** END OF SPECIFICATIONS ******************************************* 01800000
.*                                                             @D14BDBC 01850000
.*       PARAMETER FORMAT EVALUATION ------------------------- @D14BDBC 01900000
.*                                                             @D14BDBC 01950000
&BACT    SETB  (T'&ACTION EQ 'O')      ACTION PARAMETER OMMIED @D14BDBC 02000000
&BPART   SETB  (T'&PART EQ 'O')        PART   PARAMETER OMMIED @D14BDBC 02050000
         AIF   (&BACT AND &BPART).NOPAR   NO PARAMETER FORMAT  @D14BDBC 02100000
.*                                                             @D14CDBC 02150000
.*       ACTION PARAMETER EVALUATION ------------------------- @D14BDBC 02200000
.*                                                             @D14CDBC 02250000
&BUPDT   SETB  ('&ACTION' EQ 'UPDATE' OR &BACT)  ACTION UPD    @D14BDBC 02300000
&BCLRT   SETB  ('&ACTION' EQ 'CLRTIME')      ACTION = CLRTIME  @D14BDBC 02350000
&BRST    SETB  ('&ACTION' EQ 'RESET')        ACTION = RESET    @D14BDBC 02400000
         AIF   (&BUPDT OR &BCLRT OR &BRST).OK10                @D14CDBC 02450000
         MNOTE 1,'** ACTION PARAMETER MUST BE : '                       02500000
*********************- UPDATE  | CLRTIME  | RESET - *******             02550000
**********  ACTION = UPDATE ASSUMED  ***********               @D14BDBC 02600000
&BUPDT   SETB  1                        ASSUME ACTION = UPD    @D14BDBC 02650000
         AIF   (&BGETJA1).OK10      NOTES TO PARAMETER ARE PRT @D14BDBC 02700000
&BGETJA1 SETB  1                                               @D14BDBC 02750000
************************************************************** @D14BDBC 02800000
* ----> NOTES TO GETJA MACRO:                                  @D14BDBC 02850000
*                                                              @D14BDBC 02900000
* FOR THE GETJA_MACRO THERE ARE TWO FORMATES:                  @D14BDBC 02950000
*                NO PARAMETER FORMAT   AND                     @D14BDBC 03000000
*                PARAMETER FORMAT                              @D14BDBC 03050000
*                                                              @D14BDBC 03100000
* CASE 1 NO PARAMETER FORMAT:                                  @D14BDBC 03150000
*        FOR THIS FORMAT NO REGISTERS ARE DESTROIED            @D14BDBC 03200000
*        AND FOR THE EXECUTION                                 @D14BDBC 03250000
*             ACTION = UPDATE AND                              @D14BDBC 03300000
*             PART IS THE CURRET IS ASSUMED                    @D14BDBC 03350000
*                                                              @D14BDBC 03400000
* CASE 2 PARAMETER FORMAT:                                     @D14BDBC 03450000
*                                                              @D14BDBC 03500000
*   FOR THE GETJA_MACRO THERE ARE 2 PARAMETER:                 @D14BDBC 03550000
*        ACTION = ( UPDATE | CLRTIME | RESET )    AND          @D14BDBC 03600000
*        PART   = ( NAME | (R1) | (1)    )                     @D14BDBC 03650000
*                   WHERE NAME IS A 2 BYTE FLD CONTAINING PIK  @D14BDBC 03700000
*                         OR REG1 CONTAINS THE PIK             @D14BDBC 03750000
*               IF THE PART PARAMETER IS OMITTED THE CURRENT   @D14BDBC 03800000
*               PARTITION IS ASSUMED.                          @D14BDBC 03850000
*                                                              @D14BDBC 03900000
*        IF ANY PARAMETER IS SPECIFIED THEN                    @D14BDBC 03950000
*          R0, R1 AND R15 ARE DESTROIED                        @D14BDBC 04000000
*                                                              @D14BDBC 04050000
*                                                              @D14BDBC 04100000
* ---- ACTION PARAMETER OPTION DESCRIPTION:                    @D14BDBC 04150000
*                                                              @D14BDBC 04200000
*         LET XXX DENOTE THE VALUE OF XXX                      @D14BDBC 04250000
*                    BEFORE  GETJA = SVC102 EXECUTION          @D14BDBC 04300000
*         LET XXX' DENOTE THE VALUE OF XXX                     @D14BDBC 04350000
*                    AFTER GETJA = SVC102 EXECUTION            @D14BDBC 04400000
*         LET CUR DENOTE THE CURRENT PARTITION                 @D14BDBC 04450000
*                                                              @D14BDBC 04500000
*                                                              @D14BDBC 04550000
*         LET INTC DENOTE THE INTERVALL SINCE THE  L A S T     @D14BDBC 04600000
*            GETJA = SVC102 EXECUTION OF THE CURRENT PARTITION @D14BDBC 04650000
*            OR SINCE IPL.                                     @D14BDBC 04700000
*                                                              @D14BDBC 04750000
*         LET INTCLR DENOTE THE INTERVALL SINCE THE  L A S T   @D14BDBC 04800000
*                            GETJA(ACTION = CLEAR) OF          @D14BDBC 04850000
*                            THE CURRENT PARTITION             @D14BDBC 04900000
*                                         OR                   @D14BDBC 04950000
*                            SINCE IPL.                        @D14BDBC 05000000
*                                                              @D14BDBC 05050000
*         LET INTRST DENOTE THE INTERVALL SINCE THE            @D14BDBC 05100000
*                            SINCE THE LAST                    @D14BDBC 05150000
*                            GETJA( ACTION = UPDATE)           @D14BDBC 05200000
*                            B E F O R E  THE LAST             @D14BDBC 05250000
*                            GETJA(ACTION = RESET)             @D14BDBC 05300000
*                            OF THE CURRENT PARTITION          @D14BDBC 05350000
*                                         OR                   @D14BDBC 05400000
*                            SINCE IPL.                        @D14BDBC 05450000
*                                                              @D14BDBC 05500000
*         LET INTMOVE DENOTE THE INTERVALL FROM                @D14BDBC 05550000
*                            THE LAST GETJA( ACTION = UPDATE)  @D14BDBC 05600000
*                            B E F O R E  THE LAST             @D14BDBC 05650000
*                            GETJA(ACTION = RESET)             @D14BDBC 05700000
*                            TO  THE LAST                      @D14BDBC 05750000
*                            GETJA(ACTION = RESET)             @D14BDBC 05800000
*                            OF THE CURRENT PARTITION          @D14BDBC 05850000
*                                                              @D14BDBC 05900000
*         FOR ANY TIME INTERVALL J                             @D14BDBC 05950000
*                                                              @D14BDBC 06000000
*            LET CPU-TIME(J) = THE CPUTIME CHARGED TO THE      @D14BDBC 06050000
*                              CURRENT PARTITION WHILE J       @D14BDBC 06100000
*            LET OVH-TIME(J) = THE OVHTIME CHARGED TO THE      @D14BDBC 06150000
*                              CURRENT PARTITION WHILE J       @D14BDBC 06200000
*            LET BND-TIME(J) = THE BNDTIME CHARGED TO THE      @D14BDBC 06250000
*                              CURRENT PARTITION WHILE J       @D14BDBC 06300000
*                                                              @D14BDBC 06350000
*       CASE ACTION = UPDATE:                                  @D14BDBC 06400000
*                                                              @D14BDBC 06450000
*         THE TIME AND START I/O RELATED SUPERVISOR ACCOUNTING @D14BDBC 06500000
*         FLDS ARE UPDARED.                                    @D14BDBC 06550000
*                                                              @D14BDBC 06600000
*                ACCTNSIO' = NUMBER OF ENTRIES  OF ACCTSIOS'   @D14BDBC 06650000
*                ACCTLEN'  = BYTE-LENTH OF TOTAL ACCTABLE      @D14BDBC 06700000
*                          = ACCTALEN + 1 + 6*ACCTNSIO'        @D14BDBC 06750000
*                ACCTCLCK' = ACCTCLCK                          @D14BDBC 06800000
*                  = MAX ( START(INTCLR), START(INTRST) )      @D14BDBC 06850000
*                ACCTCPUT' =                                   @D14BDBC 06900000
*                  = MIN (  CPU-TIME(INTCLR),                  @D14BDBC 06950000
*                        CPU-TIME( INTRST)-CPU-TIME(INTMOVE) ) @D14BDBC 07000000
*                ACCTOVHT' =                                   @D14BDBC 07050000
*                  = MIN (  OVH-TIME(INTCLR),                  @D14BDBC 07100000
*                        OVH-TIME( INTRST)+CPU-TIME(INTMOVE) ) @D14BDBC 07150000
*                ACCTBNDT' =                                   @D14BDBC 07200000
*                  = MIN (  BND-TIME(INTCLR),                  @D14BDBC 07250000
*                                       BND-TIME( INTRST) )    @D14BDBC 07300000
*                ACCTDUR'  = MIN (DURATION(INTCLR) ,           @D14BDBC 07350000
*                                          DURATION(INTRST))   @D14BDBC 07400000
*                ACCTSIOS' = LIST OF ( CUU, NUMBER OF SIOS     @D14BDBC 07450000
*                                           FOR CUR TO CUU     @D14BDBC 07500000
*                                            WHILE INTRST)     @D14BDBC 07550000
*                                                              @D14BDBC 07600000
*       CASE ACTION = CLRTIME:                                 @D14BDBC 07650000
*                                                              @D14BDBC 07700000
*         THE TIME RELATED SUPERVISOR ACCOUNTING FLDS          @D14BDBC 07750000
*         ARE CLEARED.                                         @D14BDBC 07800000
*                ACCTCLCK' = CLCK  FROM SYSTEM                 @D14BDBC 07850000
*                ACCTCPUT' = 0                                 @D14BDBC 07900000
*                ACCTOVHT' = 0                                 @D14BDBC 07950000
*                ACCTBNDT' = 0                                 @D14BDBC 08000000
*                ACCTDUR'  = 0                                 @D14BDBC 08050000
*                                                              @D14BDBC 08100000
*         THE START I/O RELATED SUPERVISOR ACCOUNTING FLDS     @D14BDBC 08150000
*         ARE UPDARED.                                         @D14BDBC 08200000
*                ACCTNSIO' = NUMBER OF ENTRIES  OF ACCTSIOS'   @D14BDBC 08250000
*                ACCTLEN'  = BYTE-LENTH OF TOTAL ACCTABLE      @D14BDBC 08300000
*                ACCTSIOS' = LIST OF ( CUU, NUMBER OF SIOS     @D14BDBC 08350000
*                                           FOR CUR TO CUU     @D14BDBC 08400000
*                                            WHILE INTRST)     @D14BDBC 08450000
*                                                              @D14BDBC 08500000
*                                                              @D14BDBC 08550000
*       CASE ACTION = RESET:                                   @D14BDBC 08600000
*                                                              @D14BDBC 08650000
*         THE TIME AND START I/O RELATED SUPERVISOR ACCOUNTING @D14BDBC 08700000
*         FLDS ARE RESET.                                      @D14BDBC 08750000
*                                                              @D14BDBC 08800000
*         I.E.:  GETJA  S I M U L A T E S                      @D14BDBC 08850000
*              A CLEARING OF THE ACCOUNTING RELATED FLDS       @D14BDBC 08900000
*              WITH THE  L A S T  C A L L                      @D14BDBC 08950000
*              OF  G E T J A  ( LAST SVC 102 )                 @D14BDBC 09000000
*              FOR CUR AND                                     @D14BDBC 09050000
*              IN ADDITION , GETJA  M O V E S                  @D14BDBC 09100000
*              CPU-TIME TO OVH-TIME.                           @D14BDBC 09150000
*                                                              @D14BDBC 09200000
*                ACCTNSIO' = NUMBER OF ENTRIES  OF ACCTSIOS'   @D14BDBC 09250000
*                ACCTLEN'  = BYTE-LENTH OF TOTAL ACCTABLE      @D14BDBC 09300000
*                          = ACCTALEN + 1 + 6*ACCTNSIO'        @D14BDBC 09350000
*                ACCTCLCK' = START (INTC)                      @D14BDBC 09400000
*                ACCTCPUT' = 0                                 @D14BDBC 09450000
*                ACCTOVHT' = OVH-TIME( INTC)+CPU-TIME(INTC)    @D14BDBC 09500000
*                ACCTBNDT  = BND-TIME(INTC),                   @D14BDBC 09550000
*                ACCTDUR'  = DURATION(INTC)                    @D14BDBC 09600000
*                ACCTSIOS' = LIST OF ( CUU, NUMBER OF SIOS TO  @D14BDBC 09650000
*                                           CUU WHILE INTC)    @D14BDBC 09700000
*                                                              @D14BDBC 09750000
*                                                              @D14BDBC 09800000
************************************************************** @D14BDBC 09850000
.OK10    ANOP                                                  @D14BDBC 09900000
         AIF   (&BUPDT).UPDATE          ACTION PARAMETER       @D14BDBC 09950000
         AIF   (&BCLRT).CLRTIME          EVALUATION FOR JOB    @D14BDBC 10000000
         AIF   (&BRST).RESET             CONTROL               @D14BDBC 10050000
.UPDATE  ANOP                                                  @D14BDFG 10100000
&NAME    LA    0,0             R0=0 INDICATES ACTION = UPDATE  @D14BDFG 10150000
         AGO   .PARTPAR                                        @D14BDBC 10200000
.CLRTIME ANOP                                                  @D14BDFG 10250000
&NAME    LA    0,1             R0=1 INDICATES ACTION = CLRTIME @D14BDFG 10300000
         AGO   .PARTPAR                                        @D14BDBC 10350000
.RESET   ANOP                                                  @D14BDFG 10400000
&NAME    LA    0,2             R0=2 INDICATES ACTION = RESET   @D14BDFG 10450000
.*                                                             @D14CDBC 10500000
.*       PART   PARAMETER EVALUATION ------------------------- @D14BDBC 10550000
.*                                                             @D14CDBC 10600000
.PARTPAR ANOP                                                  @D14BDBC 10650000
         AIF   (&BPART).CURPART                                @D14CDBC 10700000
         AIF   ('&PART' EQ '(1)').GENSVC  R1 ALLREADY = PIK    @D14CDBC 10750000
         AIF   ('&PART'(1,1) NE '(').NAMEPIK  NOT REG NOTATION @D14CDBC 10800000
         LR    1,&PART(1)          REG NOTATION                @D14CDBC 10850000
         AGO   .GENSVC                                         @D14CDBC 10900000
.NAMEPIK ANOP                                                  @D14CDBC 10950000
         LH    1,&PART            NAME NOTATION FOR PIK        @D14CDBC 11000000
         AGO   .GENSVC                                         @D14CDBC 11050000
.CURPART SR    1,1                R1=0 INDICATES CURRENT PART  @D14CDBC 11100000
.*       END OF PARAMETER EVALUATION ------------------------- @D14BDBC 11150000
.*                                                             @D14CDBC 11200000
.*       SVC GENERATION FOR PARAMETER FORMAT------------------ @D14BDBC 11250000
.*                                                             @D14CDBC 11300000
.GENSVC  ANOP                                                  @D14CDBC 11350000
         LA    15,89                                           @D14CDBC 11400000
         SVC   107                                             @D14CDBC 11450000
         AGO   .END                                            @D14BDBC 11500000
.*                                                             @D14CDBC 11550000
.*       SVC GENERATION FOR NON PARAMETER FORMAT-------------- @D14BDBC 11600000
.*                                                             @D14CDBC 11650000
.NOPAR   ANOP                                                  @D14BDBC 11700000
&NAME    SVC   102                                             @D14BDFG 11750000
*                                                              @D14CDBC 11800000
.*--------------------------------------------------------------------* 11850000
.END     MEND                                                           11900000
