         MACRO                                                          00050000
&NAME    GETPRTY &ADDR,&LEN,&TYPE=STATIC                                00100000
         LCLB  &ALL                                                     00150000
         LCLC  &LABEL                                                   00200000
.*       IBM DISK OPERATING SYSTEM                                      00250000
*        SUPERVISOR - GETPRTY -  5686-007-06 - C44                      00300000
         AGO   .ZZZ                                            @D31UDMZ 00350000
*        THIS MACRO IS "RESTRICTED MATERIALS OF IBM"           @D31UDMZ 00400000
*        5686-007 (C) COPYRIGHT IBM CORP. 1977, 2001           @D66ADAP 00450001
*        ALL RIGHTS RESERVED                                   @D31UDMZ 00500000
*        LICENSED MATERIALS-PROPERTY OF IBM                    @D31UDMZ 00550000
*        SEE COPYRIGHT INSTRUCTIONS, G120-2083                 @D31UDMZ 00600000
.ZZZ     ANOP                                                  @D31UDMZ 00650000
.* /* START OF SPECIFICATIONS ***************************************** 00700000
.*                                                                      00750000
.*01* MODULE-TYPE = MACRO                                               00800000
.*                                                                      00850000
.*01* DESCRIPTIVE NAME = GET PARTITION PRIORITY                         00900000
.*                                                                      00950000
.*01* NOTES = CHANGE ACTIVITY                                           01000000
.*    CHANGE DESCRIPTIONS                                               01050000
.*    NEW MODULE - FIRST RELEASE 34                            @D34UDEM 01100000
.*    MORE PARTITION SUPPORT                                   @D51IDIS 01150000
.*    ALLOW GETPRTY TO BE GIVEN IN RMODE=ANY                   @D66ADAP 01160001
.**** END OF SPECIFICATIONS ***************************************** / 01200000
&NAME    DS    0H                                                       01250000
         AIF   ('&TYPE' EQ '' OR '&TYPE' EQ 'STATIC').OLD      @D51IDIS 01300000
         AIF   ('&TYPE' NE 'ALL').NS1                          @D51IDIS 01350000
&ALL     SETB  1                  INDICATE TYPE=ALL REQUESTED  @D51IDIS 01400000
.OLD     ANOP                                                  @D51IDIS 01450000
         AIF   ('&ADDR' EQ '' OR '&LEN' EQ '').NS                       01500000
         AIF   ('&ADDR'(1,1) EQ '(').P1R                                01550000
         L     1,=A(&ADDR)        POINT TO USER AREA                    01600000
         AGO   .P2                                                      01650000
.P1R     ANOP                                                           01700000
         AIF   ('&ADDR'(2,2) EQ '1)').P2                                01750000
         LR    1,&ADDR(1)         POINT TO USER AREA                    01800000
.P2      ANOP                     CHECK LENGTH PARAMETER                01850000
         AIF   ('&LEN'(1,1) EQ '(').P2R                                 01900000
         LA    0,&LEN             INDICATE LENGTH OF AREA               01950000
         AGO   .SVC                                                     02000000
.P2R     ANOP                                                           02050000
         AIF   ('&LEN'(2,2) EQ '0)').SVC                                02100000
         LR    0,&LEN(1)                                                02150000
.SVC     ANOP                                                  @D51IDIS 02200000
         AIF   (&ALL).ALL                                      @D51IDIS 02250000
.SVC1    DC    X'5610',S(*+6)     INDICATE GET REQUEST         @D66ADAP 02300001
         B     *+8                SKIP CONSTANT                @D66ADAP 02350001
         DC    XL4'80000000'      GET-PRTY REQUEST INDICATOR   @D66ADAP 02360001
         SVC   57                                                       02400000
         MEXIT                                                          02450000
.* ----------------------------------------------------------- @D51IDIS 02500000
.*    PROCESS TYPE=ALL                                         @D51IDIS 02550000
.* ----------------------------------------------------------- @D51IDIS 02600000
.ALL     ANOP                                                  @D51IDIS 02650000
&LABEL   SETC  'S57&SYSNDX'                                    @D51IDIS 02700000
         ST    0,&LABEL           STORE LENGTH INTO PARAM.LIST @D51IDIS 02750000
         ST    1,&LABEL+4         STORE ADDR.  INTO PARAM.LIST @D51IDIS 02800000
         B     &LABEL+8           BRANCH AROUND     PARAM.LIST @D51IDIS 02850000
&LABEL   DS    0F                 START OF PARAMETER LIST      @D51IDIS 02900000
         DC    F'0'               LENGTH OF AREA               @D51IDIS 02950000
         DC    F'0'               ADDR.  OF AREA               @D51IDIS 03000000
         LA    0,&LABEL           GET ADDRESS OF PARAMETER LIST@D51IDIS 03050000
         LR    1,0                INDICATE TYPE=ALL REQUEST    @D51IDIS 03100000
         AGO   .SVC1              PROCESS SVC                  @D51IDIS 03150000
         MEXIT                                                 @D51IDIS 03200000
.NS      ANOP                                                           03250000
         MNOTE 6,'PARAMETER MISSING - MACRO IGNORED'                    03300000
         MEXIT                                                          03350000
.NS1     ANOP                                                  @D51IDIS 03400000
         MNOTE 6,'TYPE SPECIFICATION INVALID - MACRO IGNORED'  @D51IDIS 03450000
         MEND                                                           03500000
