         MACRO                                                          00050000
&NAME    GETVCE  &AREA=,                                               *00100000
               &BALANCE=,                                              *00150000
               &CHNUNIT=,                                              *00200000
               &CLASS=,                                        @D21LDRP*00250000
               &DATALEN=,                                              *00300000
               &DEVICE=,                                               *00350000
               &DEVTYPE=,                                              *00400000
               &KEYLEN=,                                               *00450000
               &LENGTH=,                                               *00500000
               &LOGUNIT=,                                              *00550000
               &OPTION=,                                               *00600000
               &RECNO=,                                                *00650000
               &REQUEST=,                                              *00700000
               &VOLID=,                                                *00750000
               &MFG=                                                    00800000
.*                                                                      00850000
         LCLA  &TTY        DEVTYPE        ADDRESSING TYPE               00900000
         LCLA  &TAR        AREA           ADDRESSING TYPE               00950000
         LCLA  &TUN        VOLID          ADDRESSING TYPE               01000000
         LCLA  &TMF        MFG            ADDRESSING TYPE               01050000
         LCLA  &TDE        DEVICE         ADDRESSING TYPE               01100000
         LCLA  &TDD        DATALEN        ADDRESSING TYPE               01150000
         LCLA  &TKL        KEYLEN         ADDRESSING TYPE               01200000
         LCLA  &TRNO       RECNO          ADDRESSING TYPE               01250000
         LCLA  &TBAL       BALANCE        ADDRESSING TYPE               01300000
         LCLA  &IDE        LOG. UNIT      IDENTIFICATION                01350000
         LCLA  &STARIN1    INPUT PARAMETER  FOR STAR                    01400000
         LCLA  &INDEX      USED FOR INTERNAL PROCESSING                 01450000
         LCLA  &FLAGS      UNIT ADDRESSING FLAGS                        01500000
         LCLA  &CLIND      INDICATION OF CLASS                 @D21LDRP 01550000
         LCLA  &L          ARGUMENT LIST LENGTH                         01600000
         LCLA  &M          PARAMETER MOVE LENGTH                        01650000
         LCLA  &N          INTERNAL COUNTER                             01700000
         LCLA  &LDEF       DEFAULT USER AREA LENGTH                     01750000
         LCLA  &VER        VERSION ID                          @D37BDAP 01800000
         LCLA  &DEVZON     DEVICE ZONE                         @D14SSX1 01850000
         LCLA  &TAPECL     TAPE CLASS                          @D21LDRP 01900000
         LCLA  &DASDCL     DASD CLASS                          @D21LDRP 01950000
         LCLA  &ANYCL      ALL CLASS                           @D21LDRP 02000000
.*                                                                      02050000
         LCLB  &DEVFD      INPUT ERROR INDICATOR                        02100000
         LCLB  &RSTR0      R1 CONTENTS WAS SAVED                        02150000
         LCLB  &DYNPARM    DYNAMIC PARAMETER LIST                       02200000
.*                                                                      02250000
         LCLC  &ITY        DEVTYPE        INPUT                         02300000
         LCLC  &IAR        AREA           INPUT                         02350000
         LCLC  &IUN        DEVICE         INPUT                         02400000
         LCLC  &IMF        MFG            INPUT                         02450000
         LCLC  &XDE        CHANUNIT       INPUT                         02500000
         LCLC  &IDD        DATALEN        INPUT                         02550000
         LCLC  &IKL        KEYLEN         INPUT                         02600000
         LCLC  &IRNO       RECNO          INPUT                         02650000
         LCLC  &IBAL       BALANCE        INPUT                         02700000
         LCLC  &MSGPAR     INTERNAL VARIABLE                            02750000
         LCLC  &TARGET                                                  02800000
         LCLC  &CWORK                                                   02850000
         LCLC  &NDX                                                     02900000
         LCLC  &LNG                                                     02950000
.*                                                                      03000000
.*       IBM DISK OPERATING SYSTEM                                      03050000
*        SUPERVISOR - GETVCE - 5686-007-06-C44                 @D3CADAP 03100000
         AGO   .NOCOPY                                                  03150000
*        THIS MACRO IS "RESTRICTED MATERIALS OF IBM"           @D31UDMZ 03200000
*        5686-007 (C) COPYRIGHT IBM CORP. 1979, 1989           @D31UDMZ 03250000
*        ALL RIGHTS RESERVED                                   @D31UDMZ 03300000
*        LICENSED MATERIALS-PROPERTY OF IBM                             03350000
*        SEE COPYRIGHT INSTRUCTIONS, G120-2083                 @D31UDMZ 03400000
.NOCOPY  ANOP                                                           03450000
.* /* START OF SPECIFICATIONS ***************************************** 03500000
.*                                                                    * 03550000
.*01* MODULE-TYPE = SUPERVISOR SVC INTERFACE MACRO                    * 03600000
.*                                                                    * 03650000
.*01* DESCRIPTIVE NAME = GET VOLUME CHARACTERISTICS ENTRY             * 03700000
.*                                                                    * 03750000
.*01* NOTES = CHANGE ACTIVITY                                         * 03800000
.*    NEW MODULE FIRST RELEASE IS 35 FOR AVR SUPPORT           @D35VDEP 03850000
.*    NEW SUPPORT FOR DASD TRACK ALGORITHM ROUTINES            @D37BDAP 03900000
.*    EXTENTIONS      FOR  TRACK ALGORITHM ROUTINES            @D131DAP 03950000
.*    SUPPORT FOR EXTERNAL DEVICE CODE                         @D14BDAP 04000000
.*    SUPPORT FOR DEVICE=DASD TO RETRIEVE ALL CUU'S+VOLID'S    @D14SSX1 04050000
.*    GETVCE/MODVCE FOR TAPE                  (SPE DY37265)    @D21LDRP 04100000
.**** END OF SPECIFICATIONS ******************************************* 04150000
.*                                                                      04200000
.*       PURPOSE :                                                      04250000
.*                                                                      04300000
.*       THIS MACRO IS USED TO RETRIEVE INFORMATION ABOUT A CERTAIN     04350000
.*       DASD OR TAPE DEVICE FROM THE SUPERVISOR AND TO PUT IT          04400000
.*       INTO A USER SPECIFIED STORAGE AREA,                            04450000
.*       OR IN THE USERS REGISTERS (0-2)                                04500000
.*                                                                      04550000
.*       INPUT :                                                        04600000
.*                                                                      04650000
.*       AREA OPERAND SPECIFIES WHERE TO PUT THE INFORMATION ABOUT      04700000
.*       THE DEVICE. THE ADDRESS MAY BE GIVEN IN A REGISTER,IN A-TYPE   04750000
.*       FORMAT,OR IN S-TYPE FORMAT.                                    04800000
.*       THE AREA OPERAND MAY ONLY BE OMITTED IF               @D37BDAP 04850000
.*                            1. REQUEST=TRKCAP                @D37BDAP 04900000
.*                            2. REQUEST=TRKBAL                @D37BDAP 04950000
.*                                                                      05000000
.*       CLASS OPERAND SPECIFIES THE DEVICE CLASS FOR WHICH    @D21LDRP 05050000
.*       THE INFORMATION IS REQUESTED. ONLY VALID WITHOUT      @D21LDRP 05100000
.*       REQUEST PARAMETER. IGNORED WITH DEVICE=DASD           @D21LDRP 05150000
.*                                                                      05200000
.*       LENGTH OPERAND SPECIFIES THE LENGTH OF THE AREA, WHICH IS      05250000
.*       TO BE USED FOR DATA INSERTION. THE VALUE IS TO BE GIVEN        05300000
.*       AS A DECIMAL NUMBER OR AS A TERM EQUATED TO A NUMBER           05350000
.*       OR, (FOR DEVICE=DASD ONLY) IN REGISTER NOTATION.      @D21LDRP 05400000
.*       IF THE OPERAND IS OMITTED AND THE AREA OPERAND WAS    @D37BDAP 05450000
.*       SPECIFIED, A DEFAULT VALUE OF 56 WILL BE ASSUMED      @D14DCAP 05500000
.*       AND AN MNOTE IS GENERATED.                                     05550000
.*                                                                      05600000
.*       MFG OPERAND SPECIFIES A WORKAREA WHERE TO BUILD THE ARGUMENT   05650000
.*       LIST IN ORDER NOT TO MODIFY THE CODE. THE OPERAND IS           05700000
.*       OPTIONAL AND THE ADDRESS MAY BE GIVEN IN A REGISTER OR         05750000
.*       IN AN S-TYPE FORMAT. A FIELD OF 12 BYTES WHICH MUST BE         05800000
.*       ALIGNED ON WORD BOUNDARY WILL BE USED.                         05850000
.*                                                                      05900000
.*       THE OPERANDS DEVICE, VOLID, LOGUNIT,AND CHNUNIT ARE MUTUALLY   05950000
.*       EXCLUSIVE AND OFFER DIFFERENT WAYS OF DEVICE SPECIFICATION.    06000000
.*                                                                      06050000
.*       DEVICE OPERAND IS TO BE USED FOR IMMEDIATE SPECIFICATION OF    06100000
.*       THE LOGICAL OR PHYSICAL DEVICE'S. THE FORMATS ARE:             06150000
.*                 DEVICE=SYSXXX  FOR THE LOGICAL SPECIFICATION OR,     06200000
.*                 DEVICE=X'CUU'  FOR THE PHYSICAL SPECIFICATION OR     06250000
.*                 DEVICE=DASD    TO RETRIVE ALL CUU'S FOLLOWED BY      06300000
.*                                THE VOLID (8 BYTES PER DEVICE)        06350000
.*                                                                      06400000
.*       VOLID OPERAND ALLOWS SPECIFYING THE ADDRESS OF A FIELD WHICH   06450000
.*       CONTAINS A VOLUME IDENTIFIER. THE ADDRESS MAY BE GIVEN IN A    06500000
.*       REGISTER,IN A-TYPE FORMAT,OR IN S-TYPE FORMAT.                 06550000
.*                                                                      06600000
.*       DEVTYPE OPERAND MAY BE SPECIFIED IN CONJUNCTION WITH VOLID     06650000
.*       BECAUSE VOLID ALONE MAY BE AMBIGUOUS. THIS OPERAND SPECIFIES   06700000
.*       THE ADDRESS OF A ONE-BYTE FIELD CONTAINING THE DEVICE TYPE     06750000
.*       CODE. THE CODE IS THE PUB DEVICE TYPE CODE. THE ADDRESS MAY    06800000
.*       BE GIVEN IN A REGISTER,IN A-TYPE FORMAT,OR IN S-TYPE FORMAT.   06850000
.*                                                                      06900000
.*       LOGUNIT OPERAND ALLOWS SPECIFYING THE ADDRESS OF A HALFWORD    06950000
.*       WHICH CONTAINS THE LOGICAL UNIT IDENTIFICATION NOTATED AS IN   07000000
.*       THE CCB. THE ADDRESS MAY BE GIVEN IN A REGISTER,IN A-TYPE      07050000
.*       FORMAT,OR IN S-TYPE FORMAT.                                    07100000
.*                                                                      07150000
.*       CHNUNIT OPERAND IS SIMILAR TO LOGUNIT BUT THE HALFWORD         07200000
.*       CONTAINS THE PHYSICAL ADDRESS IN CHANNEL-UNIT NOTATION (CUU).  07250000
.*                                                                      07300000
.*       ADDRESSING FORMATS:                                            07350000
.*                                                                      07400000
.*       THE REGISTER NOTATION IS REGISTER NUMBER OR AN APPROPRIATELY   07450000
.*       EQUATED SYMBOL ENCLOSED IN PARENTHESES.                        07500000
.*       THE TERM A-TYPE FORMAT MEANS A NAME OR AN ADDRESS EXPRESSION   07550000
.*       EXPANDING IN AN A-TYPE ADDRESS CONSTANT.                       07600000
.*       THE TERM S-TYPE MEANS A NAME OR AN ADDRESS EXPRESSION WHICH    07650000
.*       COULD BE EXPANDED IN AN S-TYPE ADDRESS CONSTANT. IT WILL BE    07700000
.*       USED AS OPERAND OF AN INSTRUCTION.                             07750000
.*       IT IS TO BE WRITTEN AS (S,ADDRESS-EXPRESSION).                 07800000
.*                                                                      07850000
.*       OUTPUT :                                                       07900000
.*                                                                      07950000
.*       ARGUMENT LIST TO BE PASSED WITH SVC AND INSTRUCTIONS TO PUT    08000000
.*       DYNAMICALLY SPECIFIED INFORMATION INTO THAT LIST. THE STATIC   08050000
.*       LIST MAY BE COPIED INTO DYNAMIC STORAGE AND THIS COPY MAY BE   08100000
.*       UPDATED IN ORDER NOT TO MODIFY THE INLINE CODE (MFG OPERAND).  08150000
.*       THE ARGUMENT LIST HAS THE FOLLOWING FORMAT                     08200000
.*                                                                      08250000
.*             INLINE CODE WHICH MAY BE COPIED :                        08300000
.*                                                                      08350000
.*       DC A(AREA ADDRESS)                                             08400000
.*       DC A(DEVICE INFORMATION)                              @D14SSX1 08450000
.*       DC AL1(AREA LENGTH - 1)                                        08500000
.*       DC AL1(FLAGS)       X'N0'= VOLID                               08550000
.*                           X'N1'= LOGUNIT                             08600000
.*                           X'N2'= CHNUNIT                             08650000
.*                           X'N3'= DEVTYP ONLY                         08700000
.*                           X'N4'= ALL DASD'S                          08750000
.*                                                                      08800000
.*                                 N     DEVICE CLASS INDICATOR         08850000
.*                                 N=0   CLASS=DASD (DEFAULT)           08900000
.*                                 N=1-7 RESERVED                       08950000
.*                                 N=8   CLASS=TAPE                     09000000
.*                                 N=9-E RESERVED                       09050000
.*                                 N=F   CLASS=ANY                      09100000
.*       DC AL1(DEVICE TYPE CODE)       CONTENT ONLY VALID              09150000
.*                                      IF VOLID SPECIFIED              09200000
.*       DC X'00'                       VERSION IDENTIFIER              09250000
.*                                                                      09300000
.*       OPTIONAL FIELDS                                                09350000
.*                                                                      09400000
.*       DC AL2(DEVICE INFORMATION)     FOR DEVICE=SYSXXX OR X'CUU'     09450000
.*                                      ONLY,OTHERWISE OMITTED.         09500000
.*       DC AL2(DATALEN)                RECORD LENGTH                   09550000
.*       DC AL1(KEYLEN)                 KEYLEN                          09600000
.*       DC AL1(RECNO)                  RECORD NUMBER                   09650000
.*       DC AL1(0)                      RESERVED (MUST BE ZERO)         09700000
.*       DC AL1(FLAGS)                                                  09750000
.*       DC AL2(BALANCE)                BALANCE                         09800000
.*                                                                      09850000
.*--------------------------------------------------------------------- 09900000
&NDX     SETC  '&SYSNDX'      INITIALIZE SYSTEM INDEX                   09950000
&LDEF    SETA  56             DEFAULT AREA LENGTH              @D14BDAP 10000000
&L       SETA  14             INIT INLINE ARGUMENT LIST LENGTH          10050000
&M       SETA  &L-2           INIT ARGUMENT LIST MOVE LENGTH            10100000
&TAPECL  SETA  128            VALUE FOR CLASS = TAPE           @D21LDRP 10150000
&DASDCL  SETA  0              VALUE FOR CLASS = DASD           @D21LDRP 10200000
&ANYCL   SETA  240            VALUE FOR CLASS = ANY            @D21LDRP 10250000
.*                                                                      10300000
.*       AREA OPERAND EVALUATION ---------------------------            10350000
.*                                                                      10400000
         AIF   (T'&AREA NE 'O').ARAV                                    10450000
         AIF   (T'&REQUEST NE 'O').STAR010                     @D37BDAP 10500000
         MNOTE 8,'AREA OPERAND MISSING,GENERATION SUPPRESSED'           10550000
         AGO   .N4                                                      10600000
.STAR010 ANOP                                                           10650000
&IAR     SETC  '0'                                             @D37BDAP 10700000
         AGO   .AR1                                            @D37BDAP 10750000
.ARAV    AIF   ('&AREA'(1,1) EQ '(').ARDYN                              10800000
&IAR     SETC  '&AREA'                                                  10850000
&TAR     SETA  1              1= A-TYPE                                 10900000
         AGO   .AR1                                                     10950000
.ARDYN   AIF   ('&AREA'(1,3) EQ '(S,').ARSTYP                           11000000
&IAR     SETC  '&AREA'(2,K'&AREA-2)                                     11050000
&TAR     SETA  2              2= REGISTER                               11100000
         AGO   .AR1                                                     11150000
.ARSTYP  ANOP                                                           11200000
&IAR     SETC  '&AREA'(4,K'&AREA-4)                                     11250000
&TAR     SETA  4              4= S-TYPE                                 11300000
.AR1     ANOP                                                           11350000
.*                                                                      11400000
.*       CLASS OPERAND EVALUATION --------------------------            11450000
.*                                                                      11500000
         AIF   ('&CLASS' NE 'DASD').CL1                        @D21LDRP 11550000
.CL0     ANOP                                                  @D21LDRP 11600000
&CLIND   SETA  &DASDCL            INDICATE CLASS = DASD        @D21LDRP 11650000
         AGO   .CL4                                            @D21LDRP 11700000
.CL1     AIF   (T'&CLASS EQ 'O').CL0                           @D21LDRP 11750000
         AIF   ('&CLASS' NE 'ANY').CL2                         @D21LDRP 11800000
&CLIND   SETA  &ANYCL             INDICATE CLASS = ANY         @D21LDRP 11850000
         AGO   .CL4                                            @D21LDRP 11900000
.CL2     AIF   ('&CLASS' EQ 'TAPE').CL3                        @D21LDRP 11950000
         MNOTE 8,'CLASS=&CLASS INVALID, GENERATION SUPPRESSED' @D21LDRP 12000000
         AGO   .N4                TERMINATE MACRO GENERATION   @D21LDRP 12050000
.CL3     ANOP                                                  @D21LDRP 12100000
&CLIND   SETA  &TAPECL            INDICATE CLASS = TAPE        @D21LDRP 12150000
.CL4     ANOP                                                  @D21LDRP 12200000
.*                                                                      12250000
.*       LENGTH OPERAND EVALUATION --------------------------           12300000
.*                                                                      12350000
         AIF   (T'&LENGTH NE 'O').LNG1                                  12400000
         AIF   (&TAR EQ 0).LNG2                                @D37BDAP 12450000
         AIF   ('&DEVICE' NE 'DASD').NOTALL                    @D14SSX1 12500000
         MNOTE 8,'DEVICE=DASD REQUIRES LENGTH OPERAND.'        @D14SSX1 12550000
         AGO   .N4                                                      12600000
.NOTALL  ANOP                                                           12650000
         MNOTE 0,'LENGTH OPERAND OMITTED, LENGTH=&LDEF ASSUMED.'        12700000
&LNG     SETC  '&LDEF'                                                  12750000
         AGO   .LNG2                                                    12800000
.LNG1    ANOP                                                           12850000
         AIF   ('&LENGTH'(1,1) NE '(').LNG12                   @D21LDRP 12900000
         AIF   ('&DEVICE' EQ 'DASD').LNG11                     @D21LDRP 12950000
         MNOTE 8,'REGISTER NOTATION INVALID FOR LENGTH OPERAND'        *13000000
                                                               @D21LDRP 13050000
         AGO   .N4                TERMINATE                    @D21LDRP 13100000
.LNG11   ANOP                                                  @D21LDRP 13150000
&LNG     SETC  '&LENGTH'(2,K'&LENGTH-2)                        @D14SSX1 13200000
         AGO   .LNG2                                           @D14SSX1 13250000
.LNG12   AIF   ('&DEVICE' NE 'DASD').LENNUM                    @D21LDRP 13300000
         MNOTE 8,'REGISTER NOTATION REQUIRED FOR LENGTH OPERAND WITH DE*13350000
               VICE=&DEVICE'                                   @D21LDRP 13400000
         AGO   .N4                TERMINATE                    @D21LDRP 13450000
.LENNUM  AIF   (T'&LENGTH NE 'N').LENOK                                 13500000
         AIF   (&LENGTH LT 256).LENOK                                   13550000
         MNOTE 4,'LENGTH OPERAND INVALID, LENGTH=&LDEF ASSUMED.'        13600000
&LNG     SETC  '&LDEF'                                                  13650000
         AGO   .LNG2                                                    13700000
.LENOK   ANOP                                                           13750000
&LNG     SETC  '&LENGTH'                                                13800000
.LNG2    ANOP                                                           13850000
.*                                                                      13900000
.*       DEVICE-TYPE OPERAND EVALUATION ---------------------           13950000
.*                                                                      14000000
.TY      AIF   (T'&DEVTYPE EQ 'O').TY2                                  14050000
.TYAV    AIF   ('&DEVTYPE'(1,1) EQ '(').TYDYN                           14100000
&ITY     SETC  '&DEVTYPE'                                               14150000
&TTY     SETA  1              1= A-TYPE                                 14200000
         AGO   .TY2                                                     14250000
.TYDYN   AIF   ('&DEVTYPE'(1,3) EQ '(S,').TYSTYP                        14300000
&ITY     SETC  '&DEVTYPE'(2,K'&DEVTYPE-2)                               14350000
&TTY     SETA  2              2= REGISTER                               14400000
         AGO   .TY2                                                     14450000
.TYSTYP  ANOP                                                           14500000
&ITY     SETC  '&DEVTYPE'(4,K'&DEVTYPE-4)                               14550000
&TTY     SETA  4              4= S-TYPE                                 14600000
.TY2     ANOP                                                           14650000
.*                                                                      14700000
.*       DEVICE OPERAND EVALUATION -------------------------            14750000
.*                                                                      14800000
         AIF   (T'&DEVICE EQ 'O').VO                                    14850000
         AIF   ('&DEVICE' EQ 'DASD').DEALL                     @D14SSX1 14900000
         AIF   (K'&DEVICE NE 6).DEERR                                   14950000
         AIF   ('&DEVICE'(1,3) EQ 'SYS').DELOG                          15000000
         AIF   ('&DEVICE'(1,2) EQ 'X''').DEPHYS                         15050000
.DEERR   ANOP                                                  @D14SSX1 15100000
         MNOTE 8,'DEVICE OPERAND INVALID, GENERATION SUPPRESSED.'       15150000
         AGO   .N4                                                      15200000
.DELOG   ANOP                                                           15250000
&CWORK   SETC  '&DEVICE'(4,3)                                           15300000
         AIF   ('&CWORK' LT '000').DESYS                                15350000
&IDE     SETA  &CWORK+256                                               15400000
         AGO   .DESYSP                                         @D14SSX1 15450000
.DESYS   ANOP                                                           15500000
&INDEX   SETA  1                                                        15550000
.ILOOP   AIF   ('RDRIPTPCHLSTLOGLNKRESSLBRLBUSERECCLBVISCAT'(&INDEX,3) *15600000
               EQ '&CWORK').DESYS1                                      15650000
&INDEX   SETA  &INDEX+3                                                 15700000
         AIF   (&INDEX LT 41).ILOOP                                     15750000
         MNOTE 8,'DEVICE=&DEVICE IS INVALID, GENERATION SUPPRESSED'     15800000
         AGO   .N4                                                      15850000
.DESYS1  ANOP                                                           15900000
&IDE     SETA  (&INDEX-1)/3                                             15950000
.DESYSP  ANOP                                                           16000000
.*                            &TDE=0 INDICATES STATIC LOGICAL UNIT      16050000
         AGO   .DEEND                                                   16100000
.DEPHYS  ANOP                                                           16150000
&XDE     SETC  '&DEVICE'                                                16200000
&TDE     SETA  1              &TDE=1 INDICATES STATIC PHYSICAL UNIT     16250000
         AGO   .DEEND                                          @D14SSX1 16300000
.DEALL   ANOP                                                  @D14SSX1 16350000
         AIF   (T'&CLASS EQ 'O').DEALL1                        @D21LDRP 16400000
         MNOTE 2,'CLASS IGNORED FOR DEVICE=&DEVICE'            @D21LDRP 16450000
&CLIND   SETA  &DASDCL                                         @D21LDRP 16500000
.DEALL1  ANOP                                                  @D21LDRP 16550000
&TDE     SETA  6              &TDE=6 INDICATES DEVICE=DASD     @D14SSX1 16600000
&DEVZON  SETA  1              X'01'  INDICATION FOR ALL DASD'S @D14SSX1 16650000
.DEEND   ANOP                                                  @D14SSX1 16700000
&DEVFD   SETB  1                                                        16750000
.*                                                                      16800000
.*       VOLID OPERAND EVALUATION --------------------------            16850000
.*                                                                      16900000
.VO      AIF   (T'&VOLID NE 'O').VO0                                    16950000
         AIF   (&TTY EQ 0).LU                                           17000000
         AIF   (&TDE EQ 6).LU                                  @D14SSX1 17050000
         AIF   (T'&AREA EQ 'O').VO2                            @D131DAP 17100000
         MNOTE 2,'DEVTYPE SPECIFIED WITHOUT VOLID, SPECIFICATION IGNORE*17150000
               D'                                              @D21LDRP 17200000
.VO00    ANOP                                                  @D21LDRP 17250000
&TTY     SETA  0              IF VOLID OMITTED RESET DEVTYPE INDICATOR  17300000
         AGO   .LU                                                      17350000
.VO0     ANOP                                                           17400000
         AIF   (&DEVFD EQ 0).VO1                                        17450000
.DEVERR  ANOP                                                           17500000
         MNOTE 8,'MULTIPLE DEVICE SPECIFICATIONS,GENERATION SUPPRESSED' 17550000
         AGO   .N4                                                      17600000
.VO1     ANOP                                                           17650000
         AIF   ('&CLASS' EQ 'DASD').VO11                       @D21LDRP 17700000
         AIF   (T'&CLASS EQ 'O').VO11                          @D21LDRP 17750000
         MNOTE 2,'VOLID OBSOLETE FOR CLASS=&CLASS, SPECIFICATION IGNORE*17800000
               D'                                              @D21LDRP 17850000
         AIF   (&TTY EQ 0).LU                                  @D21LDRP 17900000
         MNOTE 2,'DEVTYPE OBSOLETE FOR CLASS=&CLASS, SPECIFICATION IGNO*17950000
               RED'                                            @D21LDRP 18000000
         AGO   .VO00              RESET DEVTYPE                @D21LDRP 18050000
.VO11    ANOP                                                  @D21LDRP 18100000
&TDE     SETA  2              &TDE=2 INDICATES VOLID ADDRESS            18150000
.VOAV    AIF   ('&VOLID'(1,1) EQ '(').VODYN                             18200000
&IUN     SETC  '&VOLID'                                                 18250000
&TUN     SETA  1              1= A-TYPE                                 18300000
         AGO   .VO3                                                     18350000
.VODYN   AIF   ('&VOLID'(1,3) EQ '(S,').VOSTYP                          18400000
&IUN     SETC  '&VOLID'(2,K'&VOLID-2)                                   18450000
&TUN     SETA  2              2= REGISTER                               18500000