*        %GOTO PLSETD;   /*                                             00050000
         MACRO                                                          00100000
&NAME    IHAETD   &LIST=NO,&FORMAT=0                                    00150000
**/                                                                     00200000
*%PLSETD : ;                                                            00250000
*/********************************************************************/ 00300000
*/*                                                                  */ 00350000
*/*01*  MACRO NAME = IHAETD                                          */ 00400000
*/*                                                                  */ 00450000
*/*01*  DESCRIPTIVE NAME =  ENTRY TABLE (ET) DESCRIPTION             */ 00500000
*/*                                                                  */ 00550000
*/*01*  MACDATE = 06/25/92                                           */ 00600000
*/*                                                                  */ 00650000
*/*01*  COPYRIGHT =                                              @L1C*/ 00700000
*/*      5685-001                                                    */ 00750000
*/*      THIS MACRO IS "RESTRICTED MATERIALS OF IBM"                 */ 00800000
*/*      (C) COPYRIGHT IBM CORP. 1980, 1988.                         */ 00850000
*/*      LICENSED MATERIALS - PROPERTY OF IBM                        */ 00900000
*/*                                                                  */ 00950000
*/*01*  STATUS =  HBB4430                                        @L1C*/ 01000000
*/*                                                                  */ 01050000
*/*01*  FUNCTION =                                                   */ 01100000
*/*      DESCRIBES THE ENTRIES TO BE ASSIGNED IN THE ENTRY TABLE     */ 01150000
*/*      CREATED BY THE ET CREATE SERVICE ROUTINE.                   */ 01200000
*/*                                                                  */ 01250000
*/*01*  METHOD OF ACCESS                                             */ 01300000
*/*      BAL - A DSECT IS PRODUCED                                   */ 01350000
*/*            PERFORM USING ON ETD OR ETDELE.                       */ 01400000
*/*            THE OLD FORMAT ETD CAN BE OBTAINED BY CODING:         */ 01450000
*/*               IHAETD FORMAT=0      (THE DEFAULT FORMAT)          */ 01500000
*/*                                                                  */ 01550000
*/*            THE EXTENDED FORM IS OBTAINED BY CODING:              */ 01600000
*/*               IHAETD FORMAT=1                                    */ 01650000
*/*                                                                  */ 01700000
*/*      BAL LISTING -  SPECIFY LIST=YES ON MACRO CALL               */ 01750000
*/*                                                                  */ 01800000
*/*      PL/AS - ETD IS DECLARED AS A BASED STRUCTURE ON ETDPTR      */ 01850000
*/*             ETDELE IS DECLARED AS A BASED STRUCTURE ON ETDEPTR   */ 01900000
*/*            THE OLD FORMAT ETD CAN BE OBTAINED BY CODING:         */ 01950000
*/*               %ETDFORM='0'         (THE DEFAULT FORMAT)          */ 02000000
*/*               %INCLUDE SYSLIB(IHAETD)                            */ 02050000
*/*                                                                  */ 02100000
*/*            THE EXTENDED FORM IS OBTAINED BY CODING:              */ 02150000
*/*               %ETDFORM='1'                                       */ 02200000
*/*               %INCLUDE SYSLIB(IHAETD)                            */ 02250000
*/*                                                                  */ 02300000
*/*            VIA ATTRIBUTE - SPECIFY %IHAVIA='YES' BEFORE THE      */ 02350000
*/*                            INCLUDE.                              */ 02400000
*/*                            DECLARE ETDALET.                      */ 02450000
*/*                                                                  */ 02500000
*/*      PL/AS LISTING - %IHALIST='YES' BEFORE THE %INCLUDE          */ 02550000
*/*                                                                  */ 02600000
*/*01* CREATED BY =                                                  */ 02650000
*/*      ISSUER OF THE ETCRE MACRO IN ANY ACCESSIBLE STORAGE         */ 02700000
*/*                                                                  */ 02750000
*/*01* DELETED BY =                                                  */ 02800000
*/*      ISSUER OF THE ETCRE MACRO                                   */ 02850000
*/*                                                                  */ 02900000
*/*01* POINTED TO BY =                                               */ 02950000
*/*      THE PARAMETER LIST PASSED TO THE ET CREATE SERVICE          */ 03000000
*/*      ROUTINE AFTER THE ETCRE MACRO HAS BEEN EXECUTED.            */ 03050000
*/*                                                                  */ 03100000
*/*01* SERIALIZATION =                                               */ 03150000
*/*      USER DEFINED - AREA OBTAINED AND CHANGED ONLY BY USER.      */ 03200000
*/*                                                                  */ 03250000
*/*01* DEPENDENCIES =                                                */ 03300000
*/*      IF THE OFFSETS IN THIS MACRO CHANGE, THE 'SETA' SYMBOLS     */ 03350000
*/*      DEFINED UNDER "IHAETD OFFSETS" IN THE BAL SOURCE OF THE     */ 03400000
*/*      ETDEF MACRO MUST ALSO BE CHANGED.                           */ 03450000
*/*                                                                  */ 03500000
*/*01* COMPONENT = SCXMS (PC/AUTH)                                   */ 03550000
*/*                                                                  */ 03600000
*/*01* DISTRIBUTION LIBRARY = AMACLIB                                */ 03650000
*/*                                                                  */ 03700000
*/****  END OF SPECIFICATIONS  ***************************************/ 03750000
*%GOTO PLSETD1; /*                                                 @L1C 03800000
.*                                                                      03850000
.*   CHANGE ACTIVITY =          THIS MACRO IS NEW FOR OS/VS2 JBB1226.   03900000
.*                                                                      03950000
.*                              31-BIT VIRTUAL SUPPORT         @G860PXW 04000000
.*                                                                      04050000
.*  $L1=AR       HBB3310  850909  PD16LD:  ACCESS REGISTERS             04100000
.*  $L2=AR       HBB3310  860106  PD16Q9:  ACCESS REGISTERS             04150000
.*  $L3=ARREN    JBB3311  880418  PD16LD:  ARR Enhancements             04200000
.*  $01=OY55354  HBB4430  920625  PD16EJ:  Add ETDRCRD                  04250000
.*                                                                      04300000
.********************************************************************** 04350000
.*                                                                      04400000
.* THE FOLLOWING ARE THE NAMING CONVENTIONS USED FOR RESERVED AREAS:    04450000
.*                                                                      04500000
.*  1. RESERVED FIELDS ARE NAMED AS FOLLOWS:                            04550000
.*                                                                      04600000
.*           ETDRSXXX    DC   XLNNN'00'    RESERVED                     04650000
.*                XXX         IS THE OFFSET WITHIN THE ETD              04700000
.*                NNN         IS THE LENGTH OF THE RESERVED FIELD       04750000
.*                                                                      04800000
.********************************************************************** 04850000
.*                                                                      04900000
         PUSH   PRINT                                                   04950000
         AIF    ('&LIST' EQ 'YES').ETDLIST    Generate listing     @L1A 05000000
         PRINT  OFF                                                     05050000
.ETDLIST ANOP   ,                                                  @L1A 05100000
.*                                                                      05150000
         AIF    ('&FORMAT' EQ '0' OR '&FORMAT' EQ '1').ETD4        @L1A 05200000
         MNOTE 8,' FORMAT=&FORMAT NOT VALID - USE FORMAT=0 OR 1'   @L1A 05250000
         AGO    .ETDEXIT              NO MAPPING IS GENERATED      @L1A 05300000
.*---------------------------------------------------------------- @L1A 05350000
.ETD4    ANOP                 GENERATE BASE PORTION OF MAPPING     @L1A 05400000
ETD      DSECT                                                          05450000
         DS    0D             ENTRY TABLE DESCRIPTION LIST -       @L1C 05500000
*                             DESCRIBES THE INPUT LIST TO THE ETCRE     05550000
*                             MACRO                                     05600000
ETDFMT   DS    B              FORMAT NUMBER OF ETD.                @L1C 05650000
*                              0= ORIGINAL FORM - PRE HBB3310      @L1A 05700000
ETDFMTE  EQU   X'01'           1= EXTENDED FORM - HBB3310          @L1A 05750000
ETDHFLAG DS    B              All non-used bits must be zero.      @01C 05800000
ETDRCRD  EQU   X'80'          If bit is ON, NO recording of cross  @01A 05850000
*                             memory connections will be performed.     05900000
*                             If bit is OFF, recording will be done.    05950000
*                             Classification: DMTI                      06000000
*                             Notes: All other bits must be zero.       06050000
*                                                                       06100000
ETDFLGRS EQU   X'7F'          Non-used bits mask                   @01A 06150000
ETDNUM   DS    H              NUMBER OF ENTRY DESCRIPTIONS THAT FOLLOW  06200000
*                             (MAXIMUM OF 128 ENTRIES PER TABLE)   @L1C 06250000
ETDEND   EQU   *                                                        06300000
ETDLEN   EQU   ETDEND-ETD     LENGTH OF ETD HEADER                      06350000
*                                                                       06400000
*                                                                       06450000
ETDELE   DSECT                ELEMENT DESCRIPTION.  ONE FOR EACH   @L1C 06500000
         DS    0F              ENTRY TO BE ASSIGNED.               @L1A 06550000
ETDEX    DS    B              INDEX FOR THIS ENTRY                      06600000
ETDFLG   DS    B              FLAG BYTE                                 06650000
ETDSUP   EQU   X'80'          PROGRAM EXECUTION STATE                   06700000
*                              0= PROBLEM STATE                         06750000
*                              1= SUPERVISOR STATE.                @L1C 06800000
ETDXM    EQU   X'40'          CROSS MEMORY SPACE SWITCH.           @L1C 06850000
*                              0= ENTRY WILL NOT CAUSE A SPACE SWITCH   06900000
*                              1= THE PROGRAM WILL EXECUTE IN THE       06950000
*                               ADDRESS SPACE OF THE CREATOR OF THE     07000000
*                               ENTRY TABLE WITH THE AUTHORIZATION OF   07050000
*                               THAT ADDRESS SPACE.                     07100000
ETDBRS3F EQU   X'3F'          RESERVED. BITS 3-8 MUST BE ZERO.     @L2A 07150000
ETDRS002 DS    H              RESERVED. MUST BE ZERO               @L1C 07200000
ETDPRO   DS    0CL8           PROGRAM NAME TO BE INVOKED OR VIRTUAL     07250000
*                             ADDRESS OF PROGRAM ENTRY POINT.           07300000
*                             IF A PROGRAM NAME, THE NAMED PROGRAM      07350000
*                             MUST BE ON THE ACTIVE LPA QUEUE           07400000
*                             (FLPA OR MLPA) OR BE IN THE PLPA OR       07450000
*                             NUCLEUS.                             @L2A 07500000
*                             IF AN ADDRESS, ETDPRO1 MUST BE ZERO AND   07550000
*                             ETDPRO2 MUST BE THE ADDRESS.              07600000
ETDPRO1  DS    F              FIRST WORD OF ETDPRO                      07650000
ETDPRO2  DS    F              SECOND WORD OF ETDPRO                     07700000
ETDAMODE EQU   X'80'          IF PROGRAM ADDRESS IS SPECIFIED THIS      07750000
*                             BIT INDICATES AMODE : IF 1, PC ROUTINE    07800000
*                             EXECUTES IN 31-BIT MODE. IF 0, PC         07850000
*                             ROUTINE EXECUTES IN 24-BIT MODE  @G860PXW 07900000
ETDAKM   DS    H              16 BIT AUTHORIZED KEY MASK. BIT 0         07950000
*                             REPRESENTS KEY 0, ETC. IF A BIT IS ON,    08000000
*                             THE CORRESPONDING KEY IS AUTHORIZED TO    08050000
*                             CALL THIS ENTRY.                          08100000
ETDAK0   EQU   X'8000'        MASK FOR KEY 0                            08150000
ETDAK1   EQU   X'4000'        MASK FOR KEY 1                            08200000
ETDAK2   EQU   X'2000'        MASK FOR KEY 2                            08250000
ETDAK3   EQU   X'1000'        MASK FOR KEY 3                            08300000
ETDAK4   EQU   X'0800'        MASK FOR KEY 4                            08350000
ETDAK5   EQU   X'0400'        MASK FOR KEY 5                            08400000
ETDAK6   EQU   X'0200'        MASK FOR KEY 6                            08450000
ETDAK7   EQU   X'0100'        MASK FOR KEY 7                            08500000
ETDAK8   EQU   X'0080'        MASK FOR KEY 8                            08550000
ETDAK9   EQU   X'0040'        MASK FOR KEY 9                            08600000
ETDAKA   EQU   X'0020'        MASK FOR KEY 10                           08650000
ETDAKB   EQU   X'0010'        MASK FOR KEY 11                           08700000
ETDAKC   EQU   X'0008'        MASK FOR KEY 12                           08750000
ETDAKD   EQU   X'0004'        MASK FOR KEY 13                           08800000
ETDAKE   EQU   X'0002'        MASK FOR KEY 14                           08850000
ETDAKF   EQU   X'0001'        MASK FOR KEY 15                           08900000
ETDEKM   DS    H              16 BIT ENTRY KEY MASK. BIT 0              08950000
*                             REPRESENTS KEY 0, ETC. IF A BIT IS ON,    09000000
*                             THE CALLED PROGRAM WILL BE AUTHORIZED     09050000
*                             TO USE THE CORRESPONDING KEY.             09100000
ETDEK0   EQU   X'8000'        MASK FOR KEY 0                            09150000
ETDEK1   EQU   X'4000'        MASK FOR KEY 1                            09200000
ETDEK2   EQU   X'2000'        MASK FOR KEY 2                            09250000
ETDEK3   EQU   X'1000'        MASK FOR KEY 3                            09300000
ETDEK4   EQU   X'0800'        MASK FOR KEY 4                            09350000
ETDEK5   EQU   X'0400'        MASK FOR KEY 5                            09400000
ETDEK6   EQU   X'0200'        MASK FOR KEY 6                            09450000
ETDEK7   EQU   X'0100'        MASK FOR KEY 7                            09500000
ETDEK8   EQU   X'0080'        MASK FOR KEY 8                            09550000
ETDEK9   EQU   X'0040'        MASK FOR KEY 9                            09600000
ETDEKA   EQU   X'0020'        MASK FOR KEY 10                           09650000
ETDEKB   EQU   X'0010'        MASK FOR KEY 11                           09700000
ETDEKC   EQU   X'0008'        MASK FOR KEY 12                           09750000
ETDEKD   EQU   X'0004'        MASK FOR KEY 13                           09800000
ETDEKE   EQU   X'0002'        MASK FOR KEY 14                           09850000
ETDEKF   EQU   X'0001'        MASK FOR KEY 15                           09900000
ETDPAR   DS    CL4            PARAMETER TO BE PASSED TO THE CALLED      09950000
*                             PROGRAM.                                  10000000
.*             SKIP THE EXTENDED PORTION IF FORMAT(0)              @L1A 10050000
         AIF   ('&FORMAT' EQ '0').ETD5                             @L1A 10100000
ETDOPTB1 DS    B              ETD OPTIONS BYTE 1                   @L1A 10150000
ETDPCTC  EQU   X'80'          PC-TYPE CONTROL                      @L1A 10200000
*                              0= BASIC PC                         @L1A 10250000
*                              1= STACKING PC                      @L1A 10300000
ETDBRS60 EQU   X'60'          RESERVED. BITS 2-3 MUST BE ZERO.     @L2A 10350000
ETDPKC   EQU   X'10'          PSW KEY CONTROL                      @L1A 10400000
*                              0= PSW KEY UNCHANGED                @L1A 10450000
*                              1= REPLACE PSW KEY WITH ETDEK       @L1A 10500000
ETDPKMC  EQU   X'08'          PSW KEY MASK CONTROL                 @L1A 10550000
*                              0= OR ETDEKM WITH PKM               @L1A 10600000
*                              1= REPLACE PKM WITH ETDEKM          @L1A 10650000
ETDEAXC  EQU   X'04'          EAX CONTROL                          @L1A 10700000
*                              0= NO EAX CHANGE                    @L1A 10750000
*                              1= REPLACE EAX WITH ETDEAX          @L1A 10800000
ETDASC   EQU   X'02'          ADDR SPACE CONTROL (PSW BITS 16-17)  @L1A 10850000
*                              0= PRIMARY MODE   (00)              @L1A 10900000
*                              1= AR MODE        (01)              @L1A 10950000
ETDSASNC EQU   X'01'          SASN CONTROL                         @L1A 11000000
*                              0= SET SASN TO OLD PASN             @L1A 11050000
*                              1= SET SASN TO NEW PASN             @L1A 11100000
ETDEK    DS    B              ENTRY KEY (HIGH ORDER 4 BITS)        @L1A 11150000
ETDEAX   DS    H              EXTENDED AUTHORIZATION INDEX         @L1A 11200000
ETDARR   DS    0CL8           ASSOCIATED RECOVERY ROUTINE NAME OR  @L2C 11250000
*                             ADDRESS OF ARR ENTRY POINT.               11300000
*                             IF AN ARR NAME, THE NAMED PROGRAM         11350000
*                             MUST BE ON THE ACTIVE LPA QUEUE           11400000
*                             (FLPA OR MLPA) OR BE IN THE PLPA OR       11450000
*                             NUCLEUS.                             @L2A 11500000
*                             IF AN ADDRESS, ETDARR1 MUST BE ZERO AND   11550000
*                             ETDARR2 MUST BE THE ADDRESS.              11600000
ETDARR1  DS    F              FIRST WORD OF ETDARR                 @L2A 11650000
ETDARR2  DS    F              SECOND WORD OF ETDARR                @L2A 11700000
ETDPAR2  DS    XL4            USER PARAMETER 2                     @L1A 11750000
ETDLPAFL DS    0F             FLAGS FOR LPA                        @L3A 11800000
ETDLPAB1 DS    B              FIRST BYTE OF FLAGS                  @L3A 11850000
ETDCANCL EQU   X'80'          CANCEL OPTION FOR ARR                @L3A 11900000
*                              0 => CANCEL=YES (DEFAULT).          @L3A 11950000
*                              1 => CANCEL=NO                      @L3A 12000000
ETDASYNC EQU   X'40'          ASYNCH OPTION FOR ARR                @L3A 12050000
*                              0 => ASYNCH=YES (DEFAULT).          @L3A 12100000
*                              1 => ASYNCH=NO                      @L3A 12150000
ETDRS1   EQU   X'3F'          RESERVED - MUST BE ZERO.             @L3A 12200000
ETDLPAB2 DS    XL3            RESERVED - MUST BE ZERO              @L3C 12250000
.ETD5    ANOP                 GENERATE COMMON TRAILER PORTION      @L1A 12300000
ETDEEND  DS    0F             END OF ENTRY TABLE DESCRIPTOR        @L1C 12350000
ETDELEN  EQU   ETDEEND-ETDELE LENGTH OF ENTRY DESCRIPTOR ELEMENT        12400000
.ETDEXIT ANOP                 END OF BAL GENERATION                @L1A 12450000
         POP   PRINT                                               @L1A 12500000
         MEND  , */                                                     12550000
*%PLSETD1: ;                                                            12600000
*                                                                       12650000
*%IF IHAVIA='YES'  %THEN                                                12700000
*   %IHAALET='VIA(ETDALET)' ;     /* VIA attribute requested     @L2A*/ 12750000
* %ELSE                                                                 12800000
*     %IHAALET='';                /* Don't use VIA               @L2A*/ 12850000
*                                                                       12900000
*@LISTPUSH;                       /* Save list option            @L1A*/ 12950000
*%IF IHALIST='YES' %THEN          /* Generate listing            @L1A*/ 13000000
*   %GOTO ETDLIST;                /*                             @L1A*/ 13050000
*@LISTOFF;                        /* Do not generate listing     @L1A*/ 13100000
*%ETDLIST: ;                      /*                             @L1A*/ 13150000
*%IF ETDFORM='' %THEN             /* IF UNSPECIFIED FORMAT       @L1A*/ 13200000
*   %ETDFORM='0';                 /* DEFAULT TO BASE FORMAT      @L1A*/ 13250000
*%IF ETDFORM='0' %THEN            /* IF VALID BASE FORMAT        @L1A*/ 13300000
*   %GOTO PLSETD4;                /*                             @L1A*/ 13350000
*%IF ETDFORM='1' %THEN            /* IF VALID EXTENDED FORMAT    @L1A*/ 13400000
*   %GOTO PLSETD4;                /*                             @L1A*/ 13450000
*%PLSETD3: ;                      /* This unused label is needed        13500000
*                                    to enable the PLS compiler to      13550000
*                                    print the following comment @L1A*/ 13600000
*   /*****************************************************************/ 13650000
*   /*  THE %ETDFORM MACRO VARIABLE WAS INCORRECTLY SPECIFIED PRIOR  */ 13700000
*   /*  TO INCLUDING THE IHAETD MACRO. USE %ETDFORM='0' OR '1'.      */ 13750000
*   /*  NO TEXT IS GENERATED;                                    @L1A*/ 13800000
*   /*****************************************************************/ 13850000
*   %GOTO PLSETDX;                /*  NO MAPPING IS GENERATED    @L1A*/ 13900000
*%PLSETD4: ;                      /*                             @L1A*/ 13950000
* DCL 1 ETD BASED(ETDPTR) BDY(DWORD)  IHAALET, /* ENTRY TABLE           14000000
*                                    DESCRIPTION LIST.                  14050000
*                                    DESCRIBES THE INPUT LIST           14100000
*                                    TO THE ETCRE MACRO.         @L2C*/ 14150000
*         3 ETDFMT FIXED(8),      /* FORMAT NUMBER OF ETD.              14200000
*                                     0= ORIGINAL FORM - PRE HBB3310    14250000
*                                     1= EXTENDED FORM - HBB3310 @L1A*/ 14300000
*         3 ETDHFLAG FIXED(8),    /* All unused bits must be zero.      14350000
*                                                                @01C*/ 14400000
*           5  ETDRCRD BIT(1),    /* 0 = Record(YES) entry table        14450000
*                                    1 = Record(NO) entry table         14500000
*                                    Classification: DMTI        @01A*/ 14550000
*           5  ETDFLGRS BIT(7),   /* Reserved, must be zero.     @01A*/ 14600000
*         3 ETDNUM FIXED(16);     /* NUMBER OF ENTRY DESCRIPTIONS THAT  14650000
*                                     FOLLOW  (MAXIMUM OF 128           14700000
*                                     ENTRIES PER TABLE)         @L1C*/ 14750000
* /*                                                             @L1A*/ 14800000
* /*                                                             @L1A*/ 14850000
* DCL 1 ETDELE BASED(ETDEPTR) BDY(WORD)  IHAALET, /* ELEMENT            14900000
*                                    DESCRIPTION.  ONE FOR EACH ENTRY   14950000
*                                    TO BE ASSIGNED              @L2C*/ 15000000
*         3 ETDEX FIXED(8),       /* INDEX FOR THIS ENTRY (0 ORIGIN) */ 15050000
*         3 ETDFLG BIT(8),        /* FLAG BYTE                       */ 15100000
*           5 ETDSUP BIT(1),      /* PROGRAM EXECUTION STATE            15150000
*                                     0= PROBLEM STATE                  15200000
*                                     1= SUPERVISOR STATE.       @L1C*/ 15250000
*           5 ETDXM BIT(1),       /* CROSS MEMORY SPACE SWITCH.         15300000
*                                     0= THE ENTRY WILL NOT CAUSE A     15350000
*                                       SPACE SWITCH.                   15400000
*                                     1= THE PROGRAM WILL EXECUTE IN    15450000
*                                       THE ADDRESS SPACE OF THE        15500000
*                                       CREATOR OF THE ENTRY TABLE      15550000
*                                       WITH THE AUTHORIZATION OF       15600000
*                                       THAT ADDRESS SPACE.      @L1C*/ 15650000
*           5 ETDBRS3F BIT(6),    /* RESERVED. BITS 3-8 MUST BE         15700000
*                                    ZERO.                       @L2C*/ 15750000
*         3 ETDRS002 FIXED(16),   /* RESERVED. MUST BE ZERO      @L1C*/ 15800000
*         3 ETDPRO CHAR(8) BDY(WORD), /* PROGRAM NAME OR THE VIRTUAL    15850000
*                                    ADDRESS TO BE GIVEN CONTROL. IF A  15900000
*                                    PROGRAM NAME, THE NAMED PROGRAM    15950000
*                                    MUST BE ON THE ACTIVE LPA QUEUE    16000000
*                                    (FLPA OR MLPA) OR BE IN THE PLPA   16050000
*                                    OR NUCLEUS.                        16100000
*                                    IF AN ADDRESS, ETDPRO1 MUST BE     16150000
*                                    ZERO AND ETDPRO2 MUST BE THE       16200000
*                                    ADDRESS.                    @L2C*/ 16250000
*           5 ETDPRO1 FIXED(32),  /* FIRST WORD OF ETDPRO            */ 16300000
*           5 ETDPRO2   PTR(31),  /* SECOND WORD OF ETDPRO           */ 16350000
*             7 ETDAMODE BIT(1),  /* IF PROGRAM ADDRESS IS SPECIFIED    16400000
*                                    THIS BIT INDICATES AMODE : IF 1,   16450000
*                                    PC ROUTINE EXECUTES IN 31-BIT      16500000
*                                    MODE. IF 0, PC ROUTINE EXECUTES    16550000
*                                    IN 24-BIT MODE          @G860PXW*/ 16600000
*         3 ETDAKM BIT(16),       /* 16 BIT AUTHORIZED KEY MASK. BIT 0  16650000
*                                    REPRESENTS KEY 0, ETC. IF A BIT IS 16700000
*                                    ON, THE CORRESPONDING KEY IS       16750000
*                                    AUTHORIZED TO CALL THIS ENTRY   */ 16800000
*           5 ETDAK0  BIT(1),     /* BIT REPRESENTING KEY 0          */ 16850000
*           5 ETDAK1  BIT(1),     /* BIT REPRESENTING KEY 1          */ 16900000
*           5 ETDAK2  BIT(1),     /* BIT REPRESENTING KEY 2          */ 16950000
*           5 ETDAK3  BIT(1),     /* BIT REPRESENTING KEY 3          */ 17000000
*           5 ETDAK4  BIT(1),     /* BIT REPRESENTING KEY 4          */ 17050000
*           5 ETDAK5  BIT(1),     /* BIT REPRESENTING KEY 5          */ 17100000
*           5 ETDAK6  BIT(1),     /* BIT REPRESENTING KEY 6          */ 17150000
*           5 ETDAK7  BIT(1),     /* BIT REPRESENTING KEY 7          */ 17200000
*           5 ETDAK8  BIT(1),     /* BIT REPRESENTING KEY 8          */ 17250000
*           5 ETDAK9  BIT(1),     /* BIT REPRESENTING KEY 9          */ 17300000
*           5 ETDAKA  BIT(1),     /* BIT REPRESENTING KEY 10         */ 17350000
*           5 ETDAKB  BIT(1),     /* BIT REPRESENTING KEY 11         */ 17400000
*           5 ETDAKC  BIT(1),     /* BIT REPRESENTING KEY 12         */ 17450000
*           5 ETDAKD  BIT(1),     /* BIT REPRESENTING KEY 13         */ 17500000
*           5 ETDAKE  BIT(1),     /* BIT REPRESENTING KEY 14         */ 17550000
*           5 ETDAKF  BIT(1),     /* BIT REPRESENTING KEY 15         */ 17600000
*         3 ETDEKM BIT(16),       /* 16 BIT ENTRY KEY MASK. BIT 0       17650000
*                                    REPRESENTS KEY 0, ETC. IF A BIT    17700000
*                                    IS ON, THE CALLED PROGRAM IS       17750000
*                                    AUTHORIZED TO USE THE KEY.      */ 17800000
*           5 ETDEK0  BIT(1),     /* BIT REPRESENTING KEY 0          */ 17850000
*           5 ETDEK1  BIT(1),     /* BIT REPRESENTING KEY 1          */ 17900000
*           5 ETDEK2  BIT(1),     /* BIT REPRESENTING KEY 2          */ 17950000
*           5 ETDEK3  BIT(1),     /* BIT REPRESENTING KEY 3          */ 18000000
*           5 ETDEK4  BIT(1),     /* BIT REPRESENTING KEY 4          */ 18050000
*           5 ETDEK5  BIT(1),     /* BIT REPRESENTING KEY 5          */ 18100000
*           5 ETDEK6  BIT(1),     /* BIT REPRESENTING KEY 6          */ 18150000
*           5 ETDEK7  BIT(1),     /* BIT REPRESENTING KEY 7          */ 18200000
*           5 ETDEK8  BIT(1),     /* BIT REPRESENTING KEY 8          */ 18250000
*           5 ETDEK9  BIT(1),     /* BIT REPRESENTING KEY 9          */ 18300000
*           5 ETDEKA  BIT(1),     /* BIT REPRESENTING KEY 10         */ 18350000
*           5 ETDEKB  BIT(1),     /* BIT REPRESENTING KEY 11         */ 18400000
*           5 ETDEKC  BIT(1),     /* BIT REPRESENTING KEY 12         */ 18450000
*           5 ETDEKD  BIT(1),     /* BIT REPRESENTING KEY 13         */ 18500000