*/* COPYRIGHT = 5686-032                                             */ 00050053
*/*            THIS MODULE IS "RESTRICTED MATERIALS OF IBM"          */ 00100000
*/*            (C) COPYRIGHT IBM CORP. 1988, 1994                    */ 00150053
*/*            LICENSED MATERIALS - PROPERTY OF IBM                  */ 00200000
*/*                                                                  */ 00250000
*/* STATUS  = HBB3310                                                */ 00300000
*/*                                                                  */ 00350000
*/* CHANGE ACTIVITY =                                                */ 00400000
*/*   $L1 =    AR    HBB3310 850901 PDXB: AR SUPPORT                 */ 00450000
*/*   @D61CDVB =     931223  PORTED TO VSE/ESA 2.1.0           @D61CDVB 00475053
         MACRO                                                          00500000
&NAME    IHBINNRR  &A,&B                                                00550000
         LCLC  &LA                      "LA" OR "LAE" VIA SYSSTATE @L1A 00600000
         GBLC  &SYSASCE                                            @L1A 00650000
         SYSSTATE TEST                  TEST ASC ENVIRONMENT       @L1A 00700000
&LA      SETC  'LA'                     MUST USE LA INSTRUCTION    @L1A 00750000
         AIF   ('&SYSASCE' EQ 'P').NOLAE                           @L1A 00800000
&LA      SETC  'LAE'                    MUST USE LAE               @L1A 00850000
.NOLAE   ANOP                                                      @L1A 00900000
.NOPT    AIF   ('&A' EQ '' OR '&A' EQ '(1)').NAMEIT               19015 00950000
         AIF   ('&A'(1,1) EQ '(').REGA                                  01000000
&NAME    &LA   1,&A                              LOAD PARAMETER REG 1   01050000
         AGO   .CHKB                                                    01100000
.REGA    ANOP                                                           01150000
&NAME    LR    1,&A(1)                           LOAD PARAMETER REG 1   01200000
         AIF   ('&SYSASCE' EQ 'P').CHKB                                 01250000
         CPYA  1,&A(1)                                                  01300000
         AGO   .CHKB                                                    01350000
.NAMEIT  AIF   ('&NAME' EQ '').CHKB                                     01400000
&NAME    DS    0H                                                       01450000
.CHKB    AIF   ('&B' EQ '' OR '&B' EQ '(0)').END                        01500000
         AIF   ('&B'(1,1) EQ '(').REGB                                  01550000
         &LA   0,&B                              LOAD PARAMETER REG 0   01600000
         AGO   .END                                                     01650000
.REGB    LR    0,&B(1)                           LOAD PARAMETER REG 0   01700000
         AIF   ('&SYSASCE' EQ 'P').END                                  01750000
         CPYA  0,&B(1)                                             @L1A 01800000
.END     MEND                                                           01850000
