* @LIST PUSH;                                                           00010007
* @LIST OFF;                                                            00020007
*/*PLS COMMENT TO AVOID UNMATCHED QUOTE PROBLEMS                        00030007
         MACRO                                                          00040007
&NAME    IJJLBSER &DSECT=,&INT=NO                                       00050007
.*                                                                      00060007
.*       IBM VSE / ADVANCED FUNCTIONS                                   00070007
*        LBSERV MACRO IJJLBSER - 5686-CF7-06-81C0                       00080011
.*                                                                      00090007
         LCLC  &LAB                 EYECATCHER LABEL           @D61ADAK 00100007
         AGO   .ZZZ                                            @D61ADAK 00110007
*********************************************************************** 00120007
*                                                                     * 00130007
*        LICENSED MATERIALS - PROPERTY OF IBM                         * 00140007
*        THIS MACRO IS "RESTRICTED MATERIALS OF IBM"                  * 00150007
*        5686-CF7 (C) COPYRIGHT IBM CORP. 1994                        * 00160011
*        SEE COPYRIGHT INSTRUCTIONS                                   * 00170007
*                                                                     * 00180007
*********************************************************************** 00190007
.ZZZ     ANOP                                                           00200007
.****** START OF SPECIFICATIONS *************************************** 00210007
.*                                                                      00220007
.*  MODULE NAME = IJJLBSER                                              00230007
.*                                                                      00240007
.*  DESCRIPTIVE NAME = MAPPING MACRO FOR THE LBSERV MACRO SERVL LAYOUT  00250007
.*                                                                      00260007
.*  COPYRIGHT =                                                         00270007
.*  STATUS = VSE/ESA 1.3.5                                              00280007
.*                                                                      00290007
.*  FUNCTION = THIS MACRO MAPS SPACE FOR THE SERVL PARAMETER            00300007
.*             USED TO DESCRIBE RETURN CODE , REASON CODE               00310007
.*             AND POINTERS TO THE INPUT PARAMETERS                     00320007
.*                                                                      00330007
.*  MODULE TYPE = MACRO                                                 00340007
.*                                                                      00350007
.*    PROCESSOR = ASSEMBLER OR PLS                                      00360007
.*                                                                      00370007
.*    ATTRIBUTES = BILINGUAL                                            00380007
.*                                                                      00390007
.*  INPUT = NO PARAMETERS ARE PASSED                                    00400007
.*                                                                      00410007
.*  OUTPUT = SPACE IS MAPPED FOR THE SERVL                              00420007
.*                                                                      00430007
.*  CHANGE ACTIVITY =                                                   00440007
.*           @D61ADAK ENLARGE DSECT                            @D61ADAK 00450007
.*           @D61SDAK 3590 SUPPORT                             @D61SDAK 00460007
.*           @D68CDAK VTS  SUPPORT                             @D68CDAK 00470009
.*                                                                      00480007
.*******END OF SPECIFICATIONS****************************************** 00490007
.* A000000-999999                                                       00500007
         AIF   (T'&NAME NE 'O').NAME                                    00510007
&LAB     SETC  'IJJLBSER'                                               00520007
         AGO   .NAME1                                                   00530007
.NAME    ANOP                                                           00540007
&LAB     SETC  '&NAME'                                                  00550007
.NAME1   AIF   ('&DSECT'NE'YES').CSECT                                  00560007
         SPACE 2                                                        00570007
&LAB     DSECT                                                          00580007
         AGO   .CSECT1                                                  00590007
.CSECT   ANOP                                                           00600007
&LAB     DS    0D                                                       00610007
.CSECT1  ANOP                                                           00620007
         AIF   ('&LAB'EQ'IJJLBSER').LAB1                                00630007
IJJLBSER DS    0X                                                       00640007
.LAB1    ANOP                                                           00650007
IJJLTLEN DS    H                      LENGTH OF AREA SET BY USER        00660007
IJJLTIDN DS    H                      LEVEL IDENTIFICATION              00670007
IJJLTRES DS    XL4                    RESERVED                          00680007
IJJLTNAM DS    CL8                    NAME OF DSECT                     00690007
IJJLTRET DS    CL4                    RETURN CODE                       00700007
IJJLTREA DS    CL4                    REASON CODE                       00710007
IJJLFLEN DS    H                      LENGTH OF PARAMETER LIST          00720007
IJJLFREQ DS    CL2                    REQUEST TYPE                      00730007
IJJLFRWF DS    AL4                    ADDRESS OF READ /WRITE FLAG       00740007
IJJLFCUU DS    AL4                    ADDRESS OF CUU                    00750007
IJJLFVOL DS    AL4                    ADDRESS OF VOLUME SERIAL          00760007
IJJLFECB DS    AL4                    ADDRESS OF ECB                    00770007
IJJLFLBN DS    AL4                    ADDRESS OF LIBRARY-ID             00780007
IJJLFSCT DS    AL4                    ADDRESS OF SOURCE CATEGORY        00790007
IJJLFTCT DS    AL4                    ADDRESS OF TARGET CATEGORY        00800007
IJJLFMEM DS    AL4                    ADDRESS OF LIBR MEMBER   @D61ADAK 00810007
         DS    AL3                    RESERVED                 @D61ADAK 00820007
IJJLTCNT DS    CL5                    COUNT FIELD FOR # OF VOL @D61ADAK 00830007
IJJLTSTA DS    CL4                    OPERATIONAL STATUS DEVICE@D61ADAK 00840007
IJJLFUSW DS    CL4                    USER WORD                @D61ADAK 00850007
IJJLFPIP DS    AL4                    POINTER TO INTERNAL PART @D61ADAK 00860007
IJJLTMED DS    CL4                    MEDIA NAME OF VOLUME     @D61SDAK 00870007
IJJLFEVL DS    AL4                    ADDRESS OF EVOL          @D68CDAK 00880010
IJJLTRST DC    44X'00'                                                  00890007
         AIF   ('&INT' NE 'YES').ENDLST                                 00900007
         ORG   IJJLTRST                                                 00910007
IJJLTMXP DS    AL4                    POINTER TO MAPXPCCB               00920007
IJJLTIXP DS    AL4                    POINTER TO SEND/RECEIVE CNTRLBL   00930007
IJJLTWRK DS    AL4                    POINTER TO WORK AREA              00940007
IJJLTPRR DS    CL2                    PREVIOUS REQUEST TYPE             00950007
IJJLTTIK DS    CL2                    TIK                               00960007
IJJLTWKA DS    CL8                    RESERVED WORK FIELD               00970007
IJJLTSTO DS    CL1                    STORAGE KEY                       00980007
IJJLTST0 EQU   X'80'                  STORAGE KEY 0                     00990007
         DS    CL3                    RESERVED              @D68CDAK    01000009
IJJLTPLI DS    AL4                    POINTER TO MAPPLF     @D68CDAK    01010009
IJJLTSRE DS    AL4                    R14 SAVE              @D68CDAK    01020009
IJJLTSR1 DS    AL4                    R14 SAVE              @D68CDAK    01030009
IJJLTSR2 DS    AL4                    R14 SAVE              @D68CDAK    01040009
.ENDLST  ANOP                                                           01050007
IJJLTLN  EQU   *-IJJLTLEN             LENGTH OF DSECT                   01060007
IJJLPLN  EQU   *-IJJLFLEN             LENGTH OF PARAMETER LIST          01070007
         MEND                                                           01080007
* END OF PLS COMMENT */                                                 01090007
* @LIST POP;                                                            01100007
*%BSERPLS:;                                                             01110007
*%IF BSER9999¬=','                                                      01120007
*    %THEN %BSER9999=';';                                               01130007
*/********************************************************************/ 01140007
*/*  MAPPING OF THE SERVL                                            */ 01150007
*/********************************************************************/ 01160007
*DCL 1 IJJLBSER BASED,                 /* SERVL MAPPING              */ 01170007
* 2 IJJLTLEN FIXED(15),                /* LENGTH OF AREA TO BE SET      01180007
*                                         BY USER                    */ 01190007
* 2 IJJLTIDN FIXED(15),                /* LEVEL IDENTIFICATION       */ 01200007
* 2 IJJLTRES FIXED(31),                /* RESERVED                   */ 01210007
* 2 IJJLTNAM CHAR(8),                  /* EYECATCHER                 */ 01220007
* 2 IJJLTRET CHAR(4),                  /* RETURN CODE                */ 01230007
* 2 IJJLTREA CHAR(4),                  /* REASON CODE                */ 01240007
* 2 IJJLTLPL,                          /* LBSERV PARAMETER LIST      */ 01250007
*  3 IJJLFLEN FIXED(15),               /* LENGTH OF PARAMETER LIST   */ 01260007
*  3 IJJLFREQ CHAR(2),                 /* REQUEST TYPE               */ 01270007
*  3 IJJLFRWF PTR(31),                 /* ADDRESS OF READ /WRITE FLAG*/ 01280007
*  3 IJJLFCUU PTR(31),                 /* ADDRESS OF CUU             */ 01290007
*  3 IJJLFVOL PTR(31),                 /* ADDRESS OF VOLUME SERIAL   */ 01300007
*  3 IJJLFECB PTR(31),                 /* ADDRESS OF ECB             */ 01310007
*  3 IJJLFLBN PTR(31),                 /* ADDRESS OF LIBRARY-ID      */ 01320007
*  3 IJJLFSCT PTR(31),                 /* ADDRESS OF SOURCE CATEGORY */ 01330007
*  3 IJJLFTCT PTR(31),                 /* ADDRESS OF TARGET CATEGORY */ 01340007
*  3 IJJLFMEM PTR(31),                 /* ADDRESS OF LIBR MEM@D61ADAK*/ 01350007
*  3 *        CHAR(3),                 /* RESERVED           @D61ADAK*/ 01360007
*  3 IJJLTCNT CHAR(5),                 /* COUNT FOR # OF VOLS@D61ADAK*/ 01370007
*  3 IJJLTSTA CHAR(4),                 /* STATUS OF DEVICE   @D61ADAK*/ 01380007
*  3 IJJLFUSW CHAR(4),                 /* USER WORD          @D61ADAK*/ 01390007
*  3 IJJLFPIP PTR(31),                 /* PTR TO INTERN PART @D61ADAK*/ 01400007
*  3 IJJLTMED CHAR(4),                 /* MEDIA NAME OF VOLUM@D61SDAK*/ 01410007
*  3 IJJLFEVL PTR(31),                 /* ADDRESS OF EVOL    @D68CDAK*/ 01420010
* 2 IJJLTRST,                          /*                    @D61ADAK*/ 01430007
*%IF IJJLBINT¬='YES' %THEN %GOTO NOPARM;                                01440007
*  3 IJJLTMXP PTR(31),                 /* POINTER TO MAPXPCCB        */ 01450007
*  3 IJJLTIXP PTR(31),                 /* POINTER TO SEND/RECEIVE       01460007
*                                         CONTROL BLOCK              */ 01470007
*  3 IJJLTWRK PTR(31),                 /* POINTER TO WORK AREA       */ 01480007
*  3 IJJLTPRR CHAR(2),                 /* PREVIOUS REQUEST TYPE      */ 01490007
*  3 IJJLTTIK CHAR(2),                 /* TIK                        */ 01500007
*  3 IJJLTWKA CHAR(8) BDY(DWORD),      /* RESERVED WORK FIELD        */ 01510007
*   5 IJJLTWK1 CHAR(4),                /* RESERVED WORK FIELD        */ 01520007
*   5 IJJLTWK2 CHAR(4),                /* RESERVED WORK FIELD        */ 01530007
   3 IJJLTSTO  BIT(8),                 /* STORAGE KEY                */ 01540007
     5 IJJLTST0 BIT(1),                /* STORAGE KEY 0              */ 01550007
     5 IJJLTSUP BIT(1),                /* IJBTLS             @D68CDAK*/ 01560009
     5 *        BIT(6),                /* UNUSED             @DY44XXX*/ 01570007
*  3 *        CHAR(3),                 /* RESERVED           @D68CDAK*/ 01580009
*  3 IJJLTPLI PTR(31),                 /* POINTER TO MAPPLF  @D68CDAK*/ 01590009
*  3 IJJLTSRE PTR(31),                 /* R14 SAVE           @D68CDAK*/ 01600009
*  3 IJJLTSR1 PTR(31),                 /* R14 SAVE           @D68CDAK*/ 01610009
*  3 IJJLTSR2 PTR(31)                  /* R14 SAVE           @D68CDAK*/ 01620009
*%GOTO PARM;                                                            01630007
*%NOPARM:;                                                              01640007
*  3 *         CHAR(44)                /* FOR EXTERNAL MACRO CALL    */ 01650007
*%PARM:;                                                                01660007
* BSER9999                                                              01670007
