         MACRO                                                          00010000
&NAME    IPOST  &ECB,&SAVE=                                             00020000
.*       IBM DISK OPERATING SYSTEM                                      00030000
*        SUPERVISOR - IPOST - 5686-007-06 - C44                         00040000
         AGO   .ZZZ                                            @D31UDMZ 00050000
*        THIS MACRO IS "RESTRICTED MATERIALS OF IBM"           @D31UDMZ 00060000
*        5686-006 (C) COPYRIGHT IBM CORP. 1977,1989            @D31UDMZ 00070000
*        ALL RIGHTS RESERVED                                   @D31UDMZ 00080000
*        LICENSED MATERIALS-PROPERTY OF IBM                    @D31UDMZ 00090000
*        SEE COPYRIGHT INSTRUCTIONS, G120-2083                 @D31UDMZ 00100000
.ZZZ     ANOP                                                  @D31UDMZ 00110000
         AIF   ('&NAME' EQ '').NOMSG                                    00120000
&NAME    DS    0H                                                   3-5 00130000
.NOMSG   ANOP                                                           00140000
         AIF   ('&ECB' NE '').NEXT                                      00150000
         MNOTE 5,'ECB NAME MISSING - MACRO IGNORED'                     00160000
         MEXIT                                                          00170000
.NEXT    AIF   ('&ECB'(1,1) EQ '(').R1  REGISTER SPECIFIED              00180000
         L     1,=A(&ECB)                                               00190000
         AGO   .C2                                                      00200000
.R1      AIF   ('&ECB'(2,2) EQ '1)').C2                                 00210000
         LR    1,&ECB(1)                                                00220000
.C2      AIF   (T'&SAVE EQ 'O').SR                                      00230000
         AIF   ('&SAVE'(1,1) EQ '(').R2                                 00240000
         L     0,=A(&SAVE)                                              00250000
         AGO   .SVC                                                     00260000
.R2      AIF   ('&SAVE'(2,2) EQ '0)').SVC                               00270000
         LR    0,&SAVE(1)                                               00280000
         AGO   .SVC                                                     00290000
.SR      ANOP                                                           00300000
         SR    0,0                                                      00310000
.SVC     ANOP                                                           00320000
         SVC   40                                                       00330000
         MEND                                                           00340000
