*%GOTO PLSNCB;                                                          00001490
*/*                                                                     00002000
         MACRO                                                          00003000
&NAME    IPW$DNC &TCP=,&PREFIX=,&DUMMY=DUMMY                   @D65CDHS 00004000
.*                                                                      00005000
.* IBM DISK OPERATING SYSTEM                                            00006000
.* VSE/POWER - 5686-CF7-03                                              00007000
.*                                                                      00008000
.*                                                                      00009000
.*                                                                      00010000
.* IPW$DNC MACRO INSTRUCTION - DEFINE NODE CONTROL BLOCK                00011000
.*                                                                      00012000
         LCLC   &P             DEFINE PREFIX VARIABLE    FIX   @D65CDHS 00013000
         AGO   .ZZZ                                                     00014000
*        LICENSED MATERIALS - PROPERTY OF IBM                           00015000
*        THIS MACRO IS "RESTRICTED MATERIALS OF IBM"                    00016000
*        5686-CF7 (C) COPYRIGHT IBM CORP. 1982, 2000                    00017000
*        SEE COPYRIGHT INSTRUCTIONS                                     00018000
.ZZZ     ANOP                                                           00019000
.* A000000-999999                                              @D03PIPT 00020000
.* INTRODUCTION OF PRIORITY TO-BE-SENT QUEUE                   @D22PIPV 00021000
.* MISCELLANEOUS IMPROVEMENTS                                  @D22DDHS 00022000
.* YEAR 2000 SUPPORT                                           @D61ZDAT 00023000
.* PNET TO PNET CONNECTION FAILS TO SIGNON                     @DA38386 00024000
.* INVALID PNET RESPONSE AFTER CONTENTION                      @DA39795 00025000
.* SETUP TIMER VARIABLE                                        @DA39816 00026000
.* MSG1RD8I ACF/VTAM RESETSR FAILED RC/FDB2=14,13 HANG         @DA41532 00027000
.* KEEP TRYING AFTER OPNDST FAILURE WITH RC/FD=10/02           @DY43611 00028000
.* MSG1Q2CI CC=20 NO PHASE NAME AFTER PSTART PNET              @DY44223 00029000
.* SUPPORT TCP/IP NODE                                         @D65CDHS 00030000
.* YEAR 2000 & LABELLED TAPE SUPPORT FOR VSE/POWER 6.1.2       @DY44177 00031000
.* UNABLE TO PSTOP PNET BSC NODE UNCONDITIONALLY               @DY44846 00032000
.* NEW TERMINATION CODE NCBTTCC FOR CTCA COLISION DETECTED     @DY45240 00033000
.* TCP/IP SEND DEADLOCK:  START RECEIVE BEFORE WAITING TILL    @DPTMH02 00034000
.*  SEND COMPLETE                                              @DPTMH02 00035000
.* RESTART TCP/IP CONNECTION WITH NEW CTC I/O                  PV010222 00036000
.* TCP/IP REISSUE CONNECT AFTER TIMER-INTERVAL                 @DPTMH11 00037000
.* IMPROVE TCP/IP SUPPORT                                      @DPTMH31 00038000
.* CLOSE CONNECTION, IF DATA-LENGTH OF POSTED RECV = 0         @DPTMH17 00039000
.* COLLECTED CHANGES FOR PNET TCP PTF                          @DY45514 00040000
.* IMPROVE RESTART CONNECTION IN CASE OF TCP/IP ERRORS         @DPTMH37 00041000
.* AVOID LOOP IF CANCEL/CLOSE FAILS                            @DPTMH38 00042000
.* AVOID LOOP IF ACTIVE AND PASSIVE CONNECTION FAILS           @DPTMH41 00043000
.* COLLECTED CHANGES FOR PNET TCP PTF                          @DY45584 00044000
.* SUPPORT TCP/IP NODE USING SSL FEATURE                       @D66CDHS 00045000
.* IDENTIFY CLIENT AND SERVER (PV030178)                       @DY45750 00046000
.* PNET SSL - SUPPORT ENCRYPT=NORMAL                           @DY45806 00047000
.* SEND EMPTY BUFFERS TO AVOID TIME-OUTS OF TCP/IP NODES       @DY46067 00048000
.* STOP TCP/IP CONNECTION WHEN CTC ERROR INDICATED (1RC1I)     @DY46322 00049490
.* PSTART PNET WITH 'BTRNC=NO' OPTION PER STARTED NODE         @DY46390 00049690
.*                                                                      00050000
.* *******************************************************************  00051000
.*                                                                   *  00052000
.*  NOTE: TO MAKE PLS MACRO EXPANSION SUCCESSFUL FOLLOW THE          *  00053000
.*        LISTED RULES IN THE ASSEMBLER PART OF THE MACRO:           *  00054000
.*        1- AVOID UNMATCHED APOSTROPHES!                            *  00055000
.*        2- AVOID UNMATCHED PLS COMMENT DELIMETERS!                 *  00056000
.*        3- AVOID USE OF 'PERCENT' AND 'QUESTION MARK'                 00057000
.*                                                                   *  00058000
.* *******************************************************************  00059000
.*                                                                   *  00060000
&P       SETC  'NCB'                    SETUP DEFAULT PREFIX   @D65CDHS 00061000
         AIF   ('&PREFIX' EQ '').NOPRF  PREFIX SPECIFIED?      @D65CDHS 00062000
&P       SETC  '&PREFIX'                USE SPECIFIED PREFIX   @D65CDHS 00063000
.NOPRF   ANOP                                                  @D65CDHS 00064000
         AIF   ('&TCP' EQ 'ONLY').TCP                          @D65CDHS 00065000
         AIF   ('&TCP' EQ 'DSECT').TCP                         @D65CDHS 00066000
         TITLE 'VSE/POWER PNET  -  NODE CONTROL BLOCK'                  00067000
         SPACE 1                                                        00068000
*********************************************************************** 00069000
* * *                                                             * * * 00070000
* * *          NODE CONTROL BLOCK                                 * * * 00071000
* * *                                                             * * * 00072000
*********************************************************************** 00073000
         SPACE 1                                                        00074000
*      A NODE CONTROL BLOCK (NCB) IS CREATED FOR EACH NODE TO           00075000
*      BE STARTED. ALL NCB ARE CHAINED TOGETHER.                        00076000
*      THE POINTER TO THE FIRST NCB IS CONTAINED IN THE PNCB            00077000
         SPACE 1                                                        00078000
NCBDS    DSECT ,                   DEFINE DUMMY SECTION                 00079000
NCBSD    IPW$DSD SECT=NCB,REL=PNET STORAGE DESCRIPTOR                   00080000
NCBNAME  DC    CL8' '              NODE NAME                            00081000
NCBNEXT  DC    A(0)                ADDRESS OF NEXT NCB IN CHAIN         00082000
         DC    A(0)                RESERVED FOR LOCKWORD                00083000
         SPACE 1                                                        00084000
NCBTYP   DS    X'00'               NODE TYPE                            00085000
NCBSNA   EQU   X'80'               .. SNA NODE, IF OFF = BSC NODE       00086000
NCBCTCA  EQU   X'40'               .. CTC ADAPTER              @D23XDAW 00087000
NCBTCP   EQU   X'20'               .. TCP/IP NODE - FOR THIS ..@D65CDHS 00088000
*                                    TYPE 'NCBCTCA' IS SET TOO @D65CDAT 00089000
NCBSSL   EQU   X'10'               .. TCP/IP NODE WITH SSL     @D66CDHS 00090000
*                                    TYPE 'NCBCTCA' IS SET TOO @D66CDHS 00091000
*                                    TYPE 'NCBTCP ' IS NOT SET @D66CDHS 00092000
NCBRSTR  EQU   X'08'               .. ON IF NO RESTART AFTER TIME-OUTS  00093000
NCBACTB  DS    0XL2                ACTION BYTES                         00094000
NCBACT1  DC    X'00'               ACTION BYTE 1                        00095000
NCBDTCH  EQU   X'80'               .. TASK DETACH REQUESTED             00096000
NCBTCRQ  EQU   X'40'               .. TASK CREATION REQUESTED           00097000
NCBLNSR  EQU   X'20'               .. LINE STOP REQUESTED               00098000
NCBFREE  EQU   X'10'               .. NCB FREE REQUESTED (SNA)          00099000
NCBINIT  EQU   X'08'               .. LINE START REQUESTED              00100000
NCBIPEND EQU   X'04'               .. INIT PENDING CTCA ONLY   @D23XDAW 00101000
NCBREACT EQU   X'02'               .. RESTART ACTIVITY         @DY44223 00102000
NCBTPEND EQU   X'01'               .. INIT PENDING TCP/IP ONLY @DPTMH31 00103000
NCBACT2  DC    X'00'               ACTION BYTE 2                        00104000
NCBSGNR  EQU   X'80'               .. SIGNON PROCEDURE REQUESTED        00105000
NCBSOFR  EQU   X'40'               .. SIGNOFF PROCESSING RQSTD          00106000
NCBLCLS  EQU   X'20'               .. LINE CLOSE PROCESSING REQUEST.    00107000
*              X'10'               .. NOT USED                          00108000
NCBSEND  EQU   X'08'               .. BUFFER READY TO SEND              00109000
*              X'04'               .. NOT USED                          00110000
NCBRCVR  EQU   X'02'               .. RECEIVE REQUESTED (SNA)           00111000
*              X'01'               .. RESERVED                          00112000
NCBPROC  DC    X'00'               PROCESS BYTE                         00113000
NCBPSGN  EQU   X'80'               .. SIGNON IN PROCESS                 00114000
NCBPRST  EQU   X'40'               .. AUTOMATIC RESTART IN PROCESS      00115000
*              X'20'               .. NOT USED                          00116000
NCBTRCE  EQU   X'10'               .. LINE TRACE MODE                   00117000
*              X'08'               .. NOT USED                          00118490
NCBDLAY  EQU   X'04'               .. DELAYED RESPONSE IN PROCESS       00119000
NCBFLG1  DC    X'00'               STATUS BYTE 1 (NODE)                 00120000
NCBSGNOC EQU   X'80'               .. SIGNON COMPLETED                  00121000
NCBSGOP1 EQU   X'40'               .. PART1 OF SIGN-ON PROCESS FINISHED 00122000
NCBSGNOS EQU   X'20'               .. SIGNON RECORD OUT OF SEQUENCE     00123000
NCBSGNR1 EQU   X'08'               .. SIGNON PROCEDURE 1                00124000
NCBSGNR2 EQU   X'04'               .. SIGNON PROCEDURE 2                00125000
NCBSGOP2 EQU   X'02'               .. PART2 OF SIGN-ON FINISHD @D65CDHS 00126000
NCBFLG2  DC    X'00'               STATUS BYTE 2                        00127000
NCBNSCLN EQU   X'08'               .. NSEXIT DRIVEN (CLEANUP)  @DA41532 00128000
NCBCTCR  EQU   X'04'               CTC RESTART FLAG            @D23XDAW 00129000
NCBWRDI  EQU   X'02'               RESTART BECAUSE WRONG MEMBER DIALED  00130000
NCBWACT  EQU   X'01'               WRITE STATISTIC AND ACCOUNT RECORD   00131000
NCBFLG3  DC    X'00'               FLAG BYTE 3                 @DY46390 00132590
NCBF3NBT EQU   X'80'               .. NO PNET BLANK TRUNCATION @DY46390 00133180
NCBTTC   DC    X'00'               TERMINATION CODE                     00134000
NCBTTCV  EQU   X'80'               .. STOP DUE TO VTAM ABEND (SNA)      00135000
NCBTTCL  EQU   X'40'               .. STOP DUE TO LINE/SESSION ERROR    00136000
NCBTTCO  EQU   X'20'               .. STOP DUE TO SIGNOFF RCVD (BSC)    00137000
NCBTTCS  EQU   X'10'               .. STOP IMMEDIATE                    00138000
NCBTTCE  EQU   X'08'               .. STOP AT EOJ                       00139000
NCBTTCF  EQU   X'04'               .. STOP IMMEDIATE,FORCE     @DY44846 00140000
NCBTTCC  EQU   X'02'               .. STOP DUE CTCA COLISION   @DY45240 00141000
NCBTTCDE DC    X'00'               ERROR SUB-CODE                       00142000
NCBTTSTQ DC    X'00'               STOP QUALIFIER FOR NCBTTCS/NCBTTCE   00143000
NCBPHALT EQU   X'80'               .. PNET HALTS NODE DUE TO ERROR      00144000
NCBVHALT EQU   X'40'               .. VTAM REQUESTED NODE STOP AT EOJ   00145000
NCBRHALT EQU   X'20'               .. REMOTE VTAM NODE REQUESTED EOJ    00146000
NCBOHALT EQU   X'10'               .. OPERATOR STOP PSTOP/PEND @DA41532 00147000
NCBSHALT EQU   X'08'               .. HALT - SEVERE LOGIC ERROR@DY44223 00148000
         SPACE 1                                                        00149000
NCBCNRV  DC    AL2(0)              CURR. NUMBER OF RECEIVERS ACTIVE     00150000
NCBCNTR  DC    AL2(0)              CURR. NUMBER OF TRANSMITTERS ACTIVE  00151000
NCBMNRV  EQU   7                   .. MAX NUMBER OF RECEIVERS           00152000
NCBMNTR  EQU   7                   .. MAX NUMBER OF TRANSMITTERS        00153000
         DC    AL2(0)              PADDING BYTES                        00154000
         SPACE 2                                                        00155000
*     THE FOLLOWING TABLE DEFINES THE TASK ENTRIES FOR THE              00156000
*     COMMAND / MESSAGE     TRANSMITTER RECEIVER (CONSOLE TR/RV)        00157000
*     ALL TABLES MUST BE ADJACENT .                                     00158000
         SPACE 1                                                        00159000
NCBCONST DC    XL8'00'             CONSOLE TRANSMITTER TASK             00160000
NCBCONSR DC    XL8'00'             CONSOLE RECEIVER TASK                00161000
         SPACE 2                                                        00162000
*        THE FOLLOWING TABLES DEFINE THE TASK ENTRIES FOR THE           00163000
*        TRANSMITTERS.                                                  00164000
         SPACE 1                                                        00165000
NCBJTTB  DC    XL(NCBMNTR*8)'00'   JOB TRANSMITTER TABLE                00166000
NCBOTTB  DC    XL(NCBMNTR*8)'00'   OUTPUT TRANSMITTER TABLE             00167000
         SPACE 1                                                        00168000
*        THE FOLLOWING TWO TABLES DEFINE THE VARIOUS TASK ENTRIES       00169000
*        FOR THE RECEIVERS.                                             00170000
         SPACE 1                                                        00171000
NCBJRTB  DC    XL(NCBMNRV*8)'00'   JOB RECEIVER TABLE                   00172000
NCBORTB  DC    XL(NCBMNRV*8)'00'   OUTPUT RECEIVER TABLE                00173000
         SPACE 1                                                        00174000
NCBMSGA  DC    A(0)                POINTER TO FIRST MSG/CMND IN QUEUE   00175000
NCBMSGT  DC    A(0)                MSG/CMND QUEUE TAIL POINTER          00176000
         SPACE 1                                                        00177000
NCBNBFRQ DC    A(0)                PTR TO SIGNON RECORD RECEIVED        00178000
         SPACE 2                                                        00179000
*              BUFFER CONTROL FIELDS                                    00180000
         SPACE 1                                                        00181000
NCBIFRE  DC    A(0)                ADDR OF FREE INPUT BUFFER QUEUE      00182000
NCBOTBS  DC    A(0)                ADDR TO-BE-SENT QUEUE (NO PRIORITY)  00183000
NCBOBTL  DC    A(0)                TAIL PTR TO-BE-SENT QUEUE (NO PRI.)  00184000
NCBOTBP  DC    A(0)                HEAD PTR PRIORITY BUFFER Q  @D22PIPV 00185000
NCBOBTP  DC    A(0)                TAIL PTR PRIORITY OUTPUT Q  @D22PIPV 00186000
NCBLBFI  DC    A(0)                LINE DRIVER BUFFER (BSC/CTC)         00187000
NCBLBFO  DC    A(0)                LINE DRIVER BUFFER (BSC/CTC)         00188000
         SPACE 1                                                        00189000
NCBBFSZ  DC    AL2(400)            PNET BUFFER SIZE                     00190000
NCBMNIB  DC    AL1(0)              MAX. NO OF INPUT BUFFERS             00191000
NCBMNJB  DC    AL1(0)              MAX. NO OF JOB/OUT XMIT BUFFERS      00192000
NCBNIBU  DC    AL2(0)              NUMBER OF ACQUIRED INPUT BUFFERS     00193000
         DC    AL2(0)              PADDING BYTES                        00194000
         SPACE 2                                                        00195000
*        I/O AND SEND/RECEIVE MANAGER FIELDS                            00196000
         SPACE 1                                                        00197000
NCBIBUF  DC    A(0)                ADDR OF NON-LINE I-BFR (BSC/CTC)     00198000
NCBOBUF  DC    A(0)                ADDR OF NON-LINE O-BFR (BSC/CTC)     00199000
NCBCBFI  DC    A(0)                ADDR OF BUFFER FOR ACTUAL RECEIVE    00200000
NCBCBFO  DC    A(0)                ADDR OF BUFFER FOR ACTUAL SEND       00201000
*                                                                       00202000
NCBRFCS  DC    XL2'00'             REMOTE HELD/RELEASED STREAM STATUS   00203000
NCBTFCS  DC    XL2'00'             NEW HELD/RELEASED STREAM STATUS      00204000
NCBFCSWB EQU   X'40'               WAIT-A-BIT                  @D65CDHS 00205000
*                                  .. (SUSPENDED ALL STREAMS)  @D65CDHS 00206000
*                                                                       00207000
*        QUEUE HEADER FOR 'PARKED' BUFFERS                              00208000
*                                                                       00209000
NCBPBFRQ DC    A(0)                HEADER OF SUSPENDED BUFFERS          00210000
         SPACE 1                                               @D65CDHS 00211000
NCBNDTEN DC    A(0)                ADDR OF NDT ENTRY           @D65CDHS 00212000
         SPACE 1                                               @D65CDHS 00213000
         DC    A(0)                RESERVED                    @D65CDHS 00214000
         DC    A(0)                RESERVED                    @D65CDHS 00215000
         DC    A(0)                RESERVED                    @D65CDHS 00216000
         EJECT 1                                               @D65CDHS 00217000
*                                                                     * 00218000
*        START OF BSC/CTC SECTION                                     * 00219000
*                                                                     * 00220000
*        LINE AND SESSION RELATED FIELDS                              * 00221000
         SPACE 1                                                        00222000
* THE FIELDS CONTAIN THE INFORMATION ON THE STATUS OF THE LINK          00223000
* BEING USED FOR SEND/RECEIVE, I.E. THE SNA SESSION RESPECTIVELY        00224000
* THE BSC LINE. AS A NODE CAN BE ONE OR THE OTHER THIS FIELD IS         00225000
* AN OVERLAY.                                                           00226000
         SPACE 2                                                        00227000
NCBLCB   DS    0D                  START OF CONTROL BLOCK OVERLAY       00228000
         SPACE 1                                                        00229000
*********************************************************************** 00230000
*        BSC CTC LINE CONTROL INFORMATION                             * 00231000
*********************************************************************** 00232000
         SPACE 1                                                        00233000
NCBPUBA  DC    A(0)                ADDR OF RELATED PUB ENTRY FOR CUU    00234000
NCBEBCB  DC    X'00'               EXPECTED BCB (BSC)                   00235000
NCBTBCB  DC    X'00'               TRANSMITTED BCB (BSC)                00236000
NCBREQF  DC    X'00'               REQUEST FIELD FOR I/O MANAGER        00237000
NCBLREQ  DC    X'00'               LAST SENT REQUEST                    00238000
NCBNNAK  DC    X'00'               LAST SENT NON NAK REQUEST            00239000
NCBLDRQ  DC    X'00'               LAST REQUEST BY LINE-DRIVER          00240000
NCBIOF1  DC    X'00'               FLAG BYTE FOR I/O MGR/LDR COMMUN.    00241000
NCBIOBF  EQU   X'80'               .. BUFFER TO ACKNOWLEDGE             00242000
NCBTERM  EQU   X'40'               .. STOP I/O FOR LINE                 00243000
NCBBCBL  EQU   X'20'               .. BCB NOT TO BE UPDATED             00244000
*                                                                       00245000
NCBTOCT  DC    X'00'               TIMEOUT COUNT FOR SWITCHED LINES     00246000
*                                  (PRE-SIGNON)                         00247000
NCBRTRY  DC    X'00'               RETRY COUNT FOR UNIT CHECK (MAX 30)  00248000
NCBRCNT  DC    X'00'               RETRY COUNT                          00249000
NCBTIMC  DC    X'00'               TIME OUT COUNT                       00250000
NCBLFB1  DC    X'00'               FLAG BYTE 1                          00251000
NCBF1BY  EQU   X'80'               .. LINE BUSY                         00252000
NCBF1SEC EQU   X'40'               .. REMOTE NODE IS SECONDARY @DA38386 00253000
NCBF1CON EQU   X'20'               .. CONTENTION DETECTED      @DA39795 00254000
NCBF1CUE EQU   X'10'               .. CONTENTION DETECTED BY   @DA39795 00255000
*                                  UNIT EXCEPTION HANDLER.     @DA39795 00256000
NCBF1FPR EQU   X'08'               .. FORCE PRIMARY            @DA39795 00257000
NCBLFB2  DC    X'00'               FLAG BYTE 2                          00258000
NCBF2IN  EQU   X'80'               .. LINE INITIALIZED                  00259000
         DS    0XL2                ALIGN                       @D23XDAW 00260000
         DC    X'00'               UNUSED                      @D23XDAW 00261000
NCBINTC  DC    X'00'               CTCT INIT NO OF 1.5 MIN TIME         00262000
*                                  .. OUTS                     @D23XDAW 00263000
NCBCTCCB DC    X'00'               CTC COMMAND BYTE            @D23XDAW 00264000
         SPACE 2                                                        00265000
*        THE FOLLOWING FIELDS REPRESENT THE LINE BLOCK ENTRY            00266000
*        AS SPECIFIED IN THE PLINE MACRO FOR THE ASSOCIATED CUU.        00267000
         SPACE 1                                                        00268000
NCBPLINE DS    0F                                                       00269000
         PLINE ADDR=NCB            DEFINE LINE BLOCK                    00270000
         SPACE 3                                                        00271000
*---------------------------------------------------------------------- 00272000
*              CCB AND CCW'S AND TEMPORARY WORKAREA                   * 00273000
*---------------------------------------------------------------------- 00274000
         SPACE 1                                                        00275000
         DS    XL4                 ALIGN                                00276000
NCBCCB   DC    XL24'00'            NJE CCB                              00277000
         SPACE 1                                                        00278000
NCBCCW   DC    5D'0'               CHANNEL PROGRAM                      00279000
NCBLCCW  DC    F'0'                ADDRESS OF LAST EXECUTED CCW         00280000
         SPACE 1                                                        00281000
NCBDISP  DC    F'0'                DISPL BETWEEN REAL - VIRTUAL OF NCB  00282000
         SPACE 1                                                        00283000
NCBSENS  DS    0XL2                SENSE BYTES                          00284000
NCBSNS1  DC    X'00'               FIRST SENSE BYTE                     00285000
NCBSNS2  DC    X'00'               SECOND SENSE BYTE                    00286000
NCBSNSLA DC    XL2'00'             SENSE BYTES OF LAST I/O              00287000
         SPACE 1                                                        00288000
NCBBSCE  EQU   *                   END OF BSC PART                      00289000
         SPACE 3                                                        00290000
*********************************************************************** 00291000
*        SNA SESSION CONTROL INFORMATION                              * 00292000
*********************************************************************** 00293000
         SPACE 1                                                        00294000
         ORG   NCBLCB              OVERLAY BSC PART                     00295000
NCBAPLID DC    CL8' '              APPL-ID OF REMOTE NODE               00296000
NCBSSCB  DC    A(0)                ADDRESS OF SSCB                      00297000
NCBSRQE  DC    A(0)                ADDRESS OF SRQE                      00298000
NCBCTCB1 DC    A(0)                ADDR. CONNECT SESSION TCB LOCAL      00299000
NCBCTCB2 DC    A(0)                ADDR. CONNECT SESSION TCB REMOTE     00300000
NCBDTCB  DC    A(0)                ADDRESS OF DISCONNECT SESSION TCB    00301000
NCBDECB  DC    A(0)                ECB OF DISCONNECT TASK               00302000
NCBIFREX DC    A(0)                ADDR 'RECEIVE-AHEAD' IPT BFR QUEUE   00303000
NCBOTBSX DC    A(0)                ADDR 'SEND-AHEAD' OUTPUR BFR QUEUE   00304000
NCBOBTLX DC    A(0)                TAIL PTR 'SEND-AHEAD' OUTPUT BFR Q   00305000
NCBWRKA  DC    A(0)                ADDR WORK AREA FOR DE-COM/COMPRESS   00306000
         SPACE 1                                                        00307000
NCBSGTE  DC    AL1(0)              GATE FOR SEND PER NODE               00308000
NCBRGTE  DC    AL1(0)              GATE FOR RECEIVE PER NODE            00309000
         SPACE 1                                                        00310000
NCBGTIPR EQU   255                 GATE IN PROGRESS (RETURN-CODE)       00311000
*---------------------------------------------------------------------- 00312000
*         SESSION STATUS                                                00313000
*---------------------------------------------------------------------- 00314000
         SPACE 1                                                        00315000
NCBSFL1  DC    X'00'               PRIMARY AP                           00316000
NCBF11   EQU   X'80'               .. PRIMARY IN PROGRESS               00317000
NCBF12   EQU   X'40'               .. PRIMARY PERMIT GIVEN              00318000
NCBF13   EQU   X'20'               .. OPNDST IN PROGRESS                00319000
NCBF14   EQU   X'10'               .. OPNDST COMPLETE                   00320000
NCBF15   EQU   X'08'               .. PRIMARY COMPLETE                  00321000
NCBF18   EQU   X'01'               .. PRIMARY AP ERROR                  00322000
         SPACE 1                                                        00323000
NCBSFL2  DC    X'00'               SECONDARY AP                         00324000
NCBF21   EQU   X'80'               .. SECONDARY IN PROGRESS             00325000
NCBF22   EQU   X'40'               .. SECONDARY PERMIT GIVEN            00326000
NCBF23   EQU   X'20'               .. OPNSEC IN PROGRESS                00327000
NCBF24   EQU   X'10'               .. OPNSEC COMPLETE                   00328000
NCBF25   EQU   X'08'               .. SECONDARY COMPLETE                00329000
NCBF26   EQU   X'04'               .. SESSION IN PROGRESS               00330000
NCBSEOK  EQU   X'02'               .. DISCONNECT REQUIRED               00331000
NCBF28   EQU   X'01'               .. SECONDARY AP ERROR                00332000
         SPACE 1                                                        00333000
NCBSFL3  DC    X'00'               TYPE OF SESSION                      00334000
*        EQU   X'FF'               .. SECONDARY HALF SESSION            00335000
*        EQU   X'00'               .. PRIMARY HALF SESSION              00336000
         SPACE 1                                                        00337000
NCBSFL4  DC    X'00'               FLAG BYTE 4 :                        00338000
NCBRSHTS EQU   X'80'               .. RSHUTD SENT                       00339000
NCBRSHTR EQU   X'40'               .. RSHUTD RECEIVED                   00340000
         SPACE 1                                                        00341000
NCBSEST  DC    X'00'               SESSION STATUS BYTE :                00342000
NCBSSUB  EQU   X'80'               .. UNBIND RECEIVED                   00343000
NCBSSTS  EQU   X'40'               .. TERMSESS IS WAITING               00344000
NCBWSDT  EQU   X'20'               .. WAIT FOR SDT                      00345000
NCBSSSD  EQU   X'10'               .. SDT RECEIVED                      00346000
NCBSSCL  EQU   X'08'               .. CLEAR RECEIVED                    00347000
NCBSHTC  EQU   X'04'               .. WAIT FOR SHUTC           @D22DDHS 00348000
         SPACE 1                                                        00349000
NCBSSCT  DC    X'00'               SESSION RETRY COUNTER       @D22DDHS 00350000
NCBSSCTL EQU   X'02'               20 MINUTES LIMIT COUNT      @DA33555 00351000
         SPACE 1                                                        00352000
NCBSSF1  DC    X'00'               SESSION FLAG BYTE           @D22DDHS 00353000
NCBSSF1W EQU   X'80'               .. ISSUE WAIT               @D22DDHS 00354000
NCBSSF1R EQU   X'40'               .. USE RC/FD FOR MSG        @DY43611 00355000
         SPACE 1                                                        00356000
         DC    XL3'00'             NOT USED                    @DA33141 00357000
NCBCMPT  DC    A(0)                COMPACTION TABLE BLOCK ADDR.@DA33141 00358000
         SPACE 1                                                        00359000
*        END SNA OVERLAY                                                00360000
         SPACE 1                                                        00361000
         ORG   NCBBSCE             FOLLOWING IS COMMON AGAIN            00362000
NCBCPWD  DC    CL8' '              PASSWORD FOR LOCAL NODE (OUTGOING)   00363000
NCBCLPW  DC    CL8' '              PASSWORD FOR LINE (OUTGOING)         00364000
NCBLCTL  EQU   64                  LENGTH OF LINE/CTL BUFFERS           00365000
         SPACE 3                                                        00366000
*********************************************************************** 00367000
*        ACCOUNT RECORD                                               * 00368000
*********************************************************************** 00369000