         MACRO                                                          00050000
&NAME    IPW$NTY &NMR=,&MSG=,&NODE=,&USER=,&APPL=,&QUAL=,      @D22BDWS*00100000
               &INTREC=,                                       @D22BDWS*00150000
               &QCM=NO,                                        @D52PDTR*00175001
               &DUMMY=DUMMY                                             00200000
.*                                                                      00250000
.*       IBM DISK OPERATING SYSTEM                                      00300000
.*       VSE/POWER - 5686-CF7-03                                        00350001
.*       IPW$NTY MACRO INSTRUCTION - NOTIFY MESSAGE SUPPORT             00400000
.*                                                                      00450000
.* A000000-9999999                                             @D03PIND 00500000
.* CROSS PARTITION SUPPORT                                     @D22BDWS 00550000
.* SUPPORT FOR JOB COMPLETION MESSAGE RETRIEVAL                @D52PDTR 00575001
.* WARNING FOR DESTROYED REGISTER 4                   @D52PDTR @KD40135 00587501
.*                                                                      00600000
         GBLB  &NUSA               NUCLEUS SWITCH                       00650000
         LCLC  &MR                 CONTAINS REGISTER                    00700000
.*                                                                      00750000
         AGO   .ZZZ                                                     00800000
*        LICENSED MATERIALS - PROPERTY OF IBM                           00850000
*        THIS MACRO IS "RESTRICTED MATERIALS OF IBM"                    00900000
*        5686-CF7 (C) COPYRIGHT IBM CORP. 1982, 2004                    00950001
*        SEE COPYRIGHT INSTRUCTIONS                                     01000000
.ZZZ     ANOP                                                           01050000
.*                                                                      01100000
         AIF   ('&NAME' EQ '').NONAME                                   01150000
&NAME    DS    0H                                                       01200000
.NONAME  ANOP                                                           01250000
.*                                                                      01300000
.*---------------  CHECK MSG= SPECIFICATION  ------------------------   01350000
.*                                                                      01400000
         AIF   (T'&MSG EQ 'O').NOMSG  CHECK IF NMR PARAM IS SPECIFIED   01450000
         AIF   ('&MSG'(1,2) EQ '(R').MSG05  ADDR OF MSG IN REGISTER     01500000
.*                                                                      01550000
         AIF   (K'&MSG LT 6).ERR5     $1Q99I (PREFIX + MSG-NUMBER)      01600000
         AIF   (K'&MSG GT 8).ERR5     $1Q99I (PREFIX + MSG-NUMBER)      01650000
.*                                                                      01700000
         LA    R1,&MSG             GET MESSAGE ADDRESS                  01750000
         AGO   .MSG10              CHECK NODE PARAM SPECIFICATION       01800000
.MSG05   ANOP                                                           01850000
         AIF   (K'&MSG NE 4).ERR5                                       01900000
         AIF   ('MSG'(2,2) EQ 'R1').MSG10    R1 ALREADY CONT. MSG-ADDR  01950000
&MR      SETC  '&MSG'(2,2)                                              02000000
         ST    &MR,TCMW            STORE MESSAGE ADDRESSS               02050000
         AGO   .MSG15              AND CONTINUE                         02100000
.*                                                                      02150000
.MSG10   ANOP                                                           02200000
         ST    R1,TCMW             STORE MESSAGE ADDRESS                02250000
.MSG15   ANOP                                                           02300000
         SR    R1,R1               INDICATE NO NMR FORMAT               02350000
.*                                                                      02400000
.*---------------  CHECK NODE= SPECIFICATION  -----------------------   02450000
.*                                                                      02500000
         AIF   ('&NODE' EQ '').NODE10 TEST IF ADDR OF NODEID IS BLANK   02550000
         AIF   ((K'&NODE NE 4) OR ('&NODE'(1,2) NE '(R')).ERR2          02600000
         AIF   ('&NODE'(2,2) EQ 'R0').USER  IF R0 SPECIFIED, GO AHEAD   02650000
.*                                                                      02700000
&MR      SETC  '&NODE'(2,2)        TAKE REG CONTENTS INTO VARIABLE      02750000
         LR    R0,&MR              LOAD ADDR OF NODEID IN REG 0         02800000
         AGO   .USER                                                    02850000
.NODE10  ANOP                                                           02900000
         SR    R0,R0               INDICATE OWN NODE                    02950000
.*                                                                      03000000
.*---------------  CHECK USER= SPECIFICATION  -----------------------   03050000
.*                                                                      03100000
.USER    ANOP                                                           03150000
         AIF   (T'&USER EQ 'O').USER10 CHECK IF USERID IS OMITTED       03200000
         AIF   ((K'&USER NE 4) OR ('&USER'(1,2) NE '(R')).ERR3          03250000
.*                                                                      03300000
&MR      SETC  '&USER'(2,2)        TAKE REG CONTENTS INTO VARIABLE      03350000
         ST    &MR,TCAW            STORE ADDRESS OF USERID IN TCB       03400000
         AGO   .APPL                                           @D22BDWS 03450000
.*                                                                      03500000
.USER10  ANOP                                                           03550000
         AIF   (T'&APPL NE 'O').APPL  CONTINUE                 @D22BDWS 03600000
         MVC   TCAW,ZERO           CLEAR ADDRESSFIELD OF USERID         03650000
.*                                                                      03700000
.*---------------  CHECK APPL= SPECIFICATION  -----------------------   03750000
.*                                                                      03800000
.APPL    ANOP                                                  @D22BDWS 03850000
         AIF   (T'&APPL EQ 'O').APPLX  CHECK IF APPL IS OMITTED@D22BDWS 03900000
         AIF   (T'&NODE NE 'O').ERR4   REPORT ERROR IF SPECIF'D@D22BDWS 03950000
         AIF   ((K'&APPL NE 4) OR ('&APPL'(1,2) NE '(R')).ERR4 @D22BDWS 04000000
         AIF   ('&APPL'(2,2) EQ 'R0').APPL5  IF R0 SPECIFIED, GO AHEAD  04050000
.*                                                                      04100000
&MR      SETC  '&APPL'(2,2)        TAKE REG CONTENTS INTO VARIABLE      04150000
         LR    R0,&MR              LOAD ADDR OF APPL-ID IN R0  @D22BDWS 04200000
.APPL5   ANOP                                                  @D22BDWS 04250000
         OI    TCCB,TCSSM          MSG IS DESTINED FOR SUBSYS  @D22BDWS 04300000
.*                                                                      04350000
.APPLX   ANOP                                                  @D22BDWS 04400000
.*                                                                      04450000
.*---------------  CHECK QUAL= SPECIFICATION  -----------------------   04500000
.*                                                                      04550000
.QUAL    ANOP                                                  @D22DDWS 04600000
         AIF   (T'&QUAL EQ 'O').QUALX  CHECK IF QUAL IS OMITTED@D22DDWS 04650000
         AIF   (T'&NODE EQ 'O').ERR2   REPORT ERROR IF OMITTED @D22DDWS 04700000
         ICM   R0,8,&QUAL          INSERT NODE  QUALIFIER      @D22DDWS 04750000
.QUALX   ANOP                                                  @D22DDWS 04800000
         AGO   .QCM                                            @D52PDTR 04850001
.*                                                                      04900000
.*---------------  CHECK NMR= SPECIFICATION  ------------------------   04950000
.*                                                                      05000000
.NOMSG   ANOP                                                           05050000
         AIF   (T'&NMR  EQ 'O').INTR00                         @D22BDWS 05100000
         AIF   ((K'&NMR NE 4) OR ('&NMR'(1,2) NE '(R')).ERR1            05150000
         AIF   ('&NMR'(2,2) EQ 'R1').QCM                       @D52PDTR 05200001
&MR      SETC  '&NMR'(2,2)                                              05250000
         LR    R1,&MR              COPY NMR ADDRESS                     05300000
         AGO   .QCM                                            @D52PDTR 05350001
.*                                                                      05400000
.*---------------  CHECK INTREC SPECIFICATION  ----------------------   05450000
.*                                                                      05500000
.INTR00  ANOP                                                  @D22BDWS 05550000
         AIF   (T'&INTREC  EQ 'O').ERR1                        @D22BDWS 05600000
         AIF   ((K'&INTREC NE 4) OR ('&INTREC'(1,2) NE '(R')).ERR1      05650000
         AIF   ('&INTREC'(2,2) EQ 'R1').INTR10                 @D22BDWS 05700000
&MR      SETC  '&INTREC'(2,2)                                  @D22BDWS 05750000
         LR    R1,&MR              COPY MESSAGE RECORD ADDRESS @D22BDWS 05800000
.INTR10  ANOP                                                  @D22BDWS 05850000
         OI    TCCB,TCSSM          MSG IS DESTINED FOR SUBSYS  @D22BDWS 05900000
         AGO   .QCM                                            @D52PDTR 05925001
.*                                                                      05950000
.*---------------  CHECK QCM=   SPECIFICATION  ----------------------   05975001
.*                                                                      06000000
.QCM     ANOP                                                  @D52PDTR 06004501
         AIF   ('&QCM' EQ 'NO').BYPR1  QCM NOT REQ. - BRANCH   @D52PDTR 06009001
.*                                                             @D52PDTR 06013501
.*       QCM SPECIFIED, SIGNAL THIS IN FLAG BYTE 10 OF TCB     @D52PDTR 06018001
.*                                                             @D52PDTR 06022501
         AIF   ('&QCM' NE  'YES').ERR6                         @D52PDTR 06027001
         OI    TCF10,TCF10QC       SIGNAL QCM IN TCB           @D52PDTR 06031501
.*                                                             @D52PDTR 06036001
         AGO   .BYPR1                                          @D52PDTR 06040501
.*                                                             @D52PDTR 06045001
.BYPR1   ANOP                                                           06050000
         AIF   (&NUSA).M500        BRANCH IF CALLED FROM INSIDE $$NU    06100000
         SPACE 1                                                        06150000
*        LINK TO NUCLEUS SERVICE FROM OUTSIDE NUCLEUS. HIGH-ORDER       06200000
*        BYTE OF LINK REGISTER MUST BE NON-ZERO. 'BAL' INSURES THIS.    06250000
         SPACE 1                                                        06300000
         BAL   R2,NS00             BRANCH TO NOTIFY SUPPORT             06350000
.*                                                                      06400000
         AGO   .M900               AND BRANCH TO EXIT MACRO             06450000
.*                                                                      06500000
.M500    ANOP                                                           06550000
         SPACE 1                                                        06600000
*        LINK TO NUCLEUS SERVICE FROM INSIDE NUCLEUS. HIGH-ORDER        06650000
*        BYTE OF LINK REGISTER MUST BE ZERO. 'LA' INSURES THIS.         06700000
         SPACE 1                                                        06750000
         LA    R2,*+8              GET LINK ADDRESS                     06800000
         B     NS00                BRANCH TO NOTIFY MESSAGE SERVICE     06850000
.M900    ANOP                                                           06900000
         SPACE 1                                                        06950000
         AIF   ('&QCM' EQ  'NO').EXIT                          @D52PDTR 06962501
         NI    TCF10,X'FF'-TCF10QC SWITCH OFF QCM FLAG         @D52PDTR 06975001
         NI    TCF10,X'FF'-TCF10FN SWITCH OFF F.F. NMR BUILT   @D52PDTR 06995801
         SPACE 1                                                        07016601
*        THE CONTENTS OF REGISTER R0..R3 HAVE BEEN DESTROYED.  @D52PDTR 07044401
*        IF QCM=YES HAS BEEN SPECIFIED, R4 IS DESTROYED TOO.   @KD40135 07072201
.*                                                                      07100000
.EXIT    ANOP                                                           07150000
         MEXIT                                                          07200000
.*                                                                      07250000
.ERR1    ANOP                                                           07300000
         MNOTE 8,'INVALID OR MISSING NMR OR INTREC SPECIFICATION'       07350000
         SPACE 1                                                        07400000
         MEXIT                                                          07450000
.*                                                                      07500000
.ERR2    ANOP                                                           07550000
         MNOTE 8,'CONFLICTING / INVALID NODE OR QUAL SPECIFICATION'     07600000
         SPACE 1                                                        07650000
         MEXIT                                                          07700000
.*                                                                      07750000
.ERR3    ANOP                                                           07800000
         MNOTE 8,'INVALID USER SPECIFICATION'                           07850000
         SPACE 1                                                        07900000
         MEXIT                                                          07950000
.*                                                                      08000000
.ERR4    ANOP                                                           08050000
         MNOTE 8,'CONFLICTING OR INVALID APPL SPECIFICATION'            08100000
         SPACE 1                                                        08150000
         MEXIT                                                          08200000
.*                                                                      08250000
.ERR5    ANOP                                                           08300000
         MNOTE 8,'INVALID MESSAGE NUMBER SPECIFIED'                     08350000
         SPACE 2                                                        08400000
         MEXIT                                                 @D52PDTR 08408301
.*                                                                      08416601
.ERR6    ANOP                                                           08424901
         MNOTE 8,'INVALID QCM OPERAND SPECIFIED'               @D52PDTR 08433201
         SPACE 2                                                        08441501
         MEND                                                           08450000
