         MACRO                                                          00050000
&NAME    IPW$RLV &ALL,&ADDR=,&OWNER=,&ANCHOR=,&PREFIX=YES,             *00100000
               &LENGTH=,                                       @D22DDSW*00150000
               &DUMMY=DUMMY                                             00200000
.*                                                                      00250000
.* IBM DISK OPERATING SYSTEM                                            00300000
.* VSE/POWER - 5686-CF7-03                                              00350001
.* IPW$RLV MACRO INSTRUCTION - RELEASE VIRTUAL STORAGE                  00400000
.*                                                                      00450000
.* A000000-9999999                                             @D03PIPP 00500000
.*                                                                      00550000
         GBLB  &NUSA               USED IN LINKING REGISTERS            00600000
         LCLC  &RLVREG             REGISTER LABEL                       00650000
.*                                                                      00700000
         AGO   .ZZZ                                                     00750000
*        LICENSED MATERIALS - PROPERTY OF IBM                           00800000
*        THIS MACRO IS "RESTRICTED MATERIALS OF IBM"                    00850000
*        5686-CF7 (C) COPYRIGHT IBM CORP. 1982, 2004                    00900001
*        SEE COPYRIGHT INSTRUCTIONS                                     00950000
.ZZZ     ANOP                                                           01000000
         AIF   (T'&NAME EQ 'O').NONAME BRANCH IF NO NAME SPECIFIED      01050000
&NAME    DS    0H                                                       01100000
.*                                                                      01150000
.******************* CHECK &ALL     SPECIFICATION ********************  01200000
.NONAME  ANOP                                                           01250000
         AIF   ('&ALL' EQ '').RLV100  IF ALL NOT SPECIFIED - BRANCH     01300000
.*                                 IF SOMETHING OTHER THAN ALL OR       01350000
.*                                 ADDR WAS SPECIFIED - ERROR           01400000
         AIF   (('&ALL' NE 'ALL') OR (T'&ADDR NE 'O')).RLVERR1          01450000
         OI    TCCB,TCRAS          IND ALL AREAS TO BE RELEASED@D22DDWS 01500000
         AGO   .RLV120             BRANCH AROUND ADDR PARM              01550000
.*                                                                      01600000
.******************* CHECK &ALL     OMITTED   AND ********************  01650000
.*******************       &ADDR=   SPECIFICATION ********************  01700000
.RLV100  ANOP                                                           01750000
         AIF   (T'&ADDR EQ 'O').RLVERR2 IF ADDR NOT SPECIFIED - ERROR   01800000
.*                                 IF LENGTH OF ADDR ¬= 4 OR REGISTER   01850000
.*                                 NOTATION NOT USED - ERROR            01900000
         AIF   ((K'&ADDR NE 4) OR ('&ADDR'(1,2) NE '(R')).RLVERR3       01950000
         AIF   ('&ADDR'(2,2) EQ 'R1').RLV120 ADDR IS ALREADY IN REG 1   02000000
&RLVREG  SETC  '&ADDR'(2,2)        GET SPECIFIED ADDR                   02050000
         LR    R1,&RLVREG          LOAD ADDR IN REGISTER 1              02100000
.*                                                                      02150000
.******************* CHECK (CONT.)                ********************  02200000
.*******************       &PREFIX= SPECIFICATION ********************  02250000
.RLV120  ANOP                                                           02300000
         AIF   ('&PREFIX' NE 'NO').RLV135  BRANCH IF PREFIX=YES@D22DDSW 02350000
.*                                                                      02400000
.******************* CHECK &PREFIX =NO AND       *********************  02450000
.*******************       &LENGTH=SPECIFICATION *********************  02500000
         OI    TCCB,TCNP           INDICATE NO STORAGE PREFIX WANTED    02550000
.*                                                                      02600000
         AIF   (T'&LENGTH EQ 'O').RLVERR7 NO LENGTH SPEC"D-ERR @D22DDSW 02650000
         AIF   ('&LENGTH'(1,2) EQ '(R').RLV132 REGISTER NOT"N  @D22DDSW 02700000
         LA    R0,&LENGTH          LOAD LENGTH IN REGISTER 0   @D22DDSW 02750000
         AGO   .RLV134             CONTINUE                    @D22DDSW 02800000
.RLV132  ANOP                                                  @D22DDSW 02850000
         AIF   (K'&LENGTH NE 4).RLVERR7 LENGTH OF PARM ¬=4  ERR@D22DDSW 02900000
         AIF   ('&LENGTH'(2,2) EQ 'R0').RLV134 IS LEN IN REG 0?@D22DDSW 02950000
&RLVREG  SETC  '&LENGTH'(2,2)      PUT REGISTER IN RLVREG      @D22DDSW 03000000
         LR    R0,&RLVREG          LOAD LENGTH IN REGISTER 0   @D22DDSW 03050000
.RLV134  ANOP                                                           03100000
         AGO   .RLV200             BRANCH FOR FINAL PROCESSING          03150000
.*                                                                      03200000
.******************* CHECK &PREFIX¬=NO AND       *********************  03250000
.*******************       &OWNER= SPECIFICATION *********************  03300000
.RLV135  ANOP                                                  @D22DDSW 03350000
         AIF   (T'&OWNER EQ 'O').RLV160 IF NOT SPECIFIED THEN BRANCH.   03400000
.*                                 OWNER AND ANCHOR ARE EXCLUSIVE, SO   03450000
         AIF   ((T'&ANCHOR NE 'O')).RLVERR4 IF ANCHOR SPECIFIED - ERROR 03500000
.*                                 IF LENGTH OF OWNER ¬= 4 OR           03550000
.*                                 OWNER IS NOT REG. NOTATION - ERROR   03600000
         AIF   ((K'&OWNER NE 4) OR ('&OWNER'(1,2) NE '(R')).RLVERR5     03650000
&RLVREG  SETC  '&OWNER'(2,2)       PUT REGISTER SPECIFIED INTO RLVREG   03700000
         LA    R4,(TCHD-TCDS)(&RLVREG) LOAD START OF CHAIN IN REG 4     03750000
.*                                                                      03800000
.RLV140  ANOP                                                           03850000
         OI    TCCB,TCCA           INDICATE OWNER ADDR WAS SPECIFIED    03900000
         AGO   .RLV200             BRANCH FOR FINAL PROCESSING          03950000
.*                                                                      04000000
.******************* CHECK &PREFIX¬=NO AND          ******************  04050000
.*******************       &OWNER NOT SPECIFIED AND ******************  04100000
.*******************       &ANCHOR    SPECIFICATION ******************  04150000
.RLV160  ANOP                                                           04200000
.*                                 IF NOT SPECIFIED BRANCH TO           04250000
         AIF   (T'&ANCHOR EQ 'O').RLV200 FINAL PROCESSING               04300000
.*                                 LENGTH OF ANCHOR ¬= 4 OR             04350000
.*                                 NO REGISTER NOTATION SPECIFIED?      04400000
         AIF   ((K'&ANCHOR NE 4) OR ('&ANCHOR'(1,2) NE '(R')).RLVERR6   04450000
.*                                 IF ALREADY IN REG 4 THEN             04500000
         AIF   ('&ANCHOR'(2,2) EQ 'R4').RLV180 CONTINUE PROCESSING      04550000
&RLVREG  SETC  '&ANCHOR'(2,2)      PUT REGISTER IN RLVREG               04600000
         LR    R4,&RLVREG          LOAD REGISTER INTO REGISTER 4        04650000
.*                                                                      04700000
.RLV180   ANOP                                                          04750000
         OI    TCCB,TCCA           INDICATE ANCHOR ADDR WAS SPECIFIED   04800000
.*                                                                      04850000
.*********************************************************************  04900000
.RLV200  ANOP                                                           04950000
         AIF   (&NUSA).RLV300                                           05000000
         SPACE                                                          05050000
*        LINK TO NUCLEUS SERVICE FROM OUTSIDE NUCLEUS.  HIGH-ORDER      05100000
*        BYTE OF LINK REG MUST BE NON-ZERO.  'BAL' INSURES THIS.        05150000
         SPACE                                                          05200000
         BAL   R2,VS50             RELEASE VIRTUAL STORAGE              05250000
         AGO   .RLV400             BRANCH TO RESERVE VIRTUAL STORAGE    05300000
.*                                                                      05350000
.RLV300  ANOP                                                           05400000
         SPACE                                                          05450000
*        LINK TO NUCLEUS SERVICE FROM INSIDE NUCLEUS.  HIGH-ORDER       05500000
*        BYTE OF LINK REG MUST BE ZERO.  'LA' INSURES THIS.             05550000
         SPACE                                                          05600000
         LA    R2,*+8              GET LINK ADDRESS                     05650000
         B     VS50                RELEASE VIRTUAL STORAGE              05700000
.*                                                                      05750000
.RLV400  ANOP                                                           05800000
         SPACE                                                          05850000
*        THE CONTENTS OF REGISTER 0, 1, 2, 3 (AND 4 IF ANCHOR OR OWNER  05900000
*        WAS SPECIFIED) HAVE BEEN DESTROYED.                            05950000
         MEXIT                                                          06000000
.*                                                                      06050000
.*                                                                      06100000
.RLVERR1    ANOP                                                        06150000
         MNOTE 8,'INVALID MACRO SPECIFICATION'                          06200000
         SPACE 2                                                        06250000
         MEXIT                                                          06300000
.*                                                                      06350000
.RLVERR2    ANOP                                                        06400000
         MNOTE 8,'ADDR PARAMETER NOR ALL PARAMETER SPECIFIED'           06450000
         SPACE 2                                                        06500000
         MEXIT                                                          06550000
.*                                                                      06600000
.RLVERR3    ANOP                                                        06650000
         MNOTE 8,'INVALID ADDR SPECIFICATION'                           06700000
         SPACE 2                                                        06750000
         MEXIT                                                          06800000
.*                                                                      06850000
.RLVERR4    ANOP                                                        06900000
         MNOTE 8,'OWNER AND ANCHOR PARAMETER ARE EXCLUSIVE'             06950000
         SPACE 2                                                        07000000
         MEXIT                                                          07050000
.*                                                                      07100000
.RLVERR5    ANOP                                                        07150000
         MNOTE 8,'INVALID OWNER SPECIFICATION'                          07200000
         SPACE 2                                                        07250000
         MEXIT                                                          07300000
.*                                                                      07350000
.RLVERR6    ANOP                                                        07400000
         MNOTE 8,'INVALID ANCHOR SPECIFICATION'                         07450000
         SPACE 2                                                        07500000
         MEXIT                                                 @D22DDSW 07550000
.*                                                                      07600000
.RLVERR7    ANOP                                                        07650000
         MNOTE 8,'LENGTH SPECIFICATION MISSING OR INVALID'     @D22DDSW 07700000
         SPACE 2                                               @D22DDSW 07750000
.*                                                                      07800000
         MEND                                                           07850000
