*%GOTO PLSPNCB;                                                         00050000
*/*                                                                     00100000
         MACRO                                                          00150000
&NAME    IPW$DPN &OP1                                                   00200000
.*                                                                      00250000
         LCLC  &PR                 USED AS PREFIX                       00300000
.*                                                                      00350000
.*                                                                      00400000
.* IBM DISK OPERATING SYSTEM                                            00450000
.* VSE/POWER - 5686-CF7-03                                              00500018
.* IPW$DPN MACRO INSTRUCTION - PNET CONTROL BLOCK                       00550000
.*                                                                      00600000
.* CHANGE ACTIVITY - NEW MACRO                                          00650000
.* A000000-999999                                             @D03PIPT  00700000
.* MISCELLANEOUS IMPROVEMENTS                                 @D22DDHS  00750000
.* TRANSMITTER USER EXIT                                      @D51TDTR  00800000
.* SPLITTING IPW$$NR                                          @D51QDHS  00850000
.* MSG 1QZ0I (CHAINING ERROR IN VIRTUAL STORAGE CHAIN)        @DA41271  00866601
.* USE ECB FOR CHECKING THE EXISTENCE OF SUBTASK FOR VTAM     @DA41271  00883201
.* UNABLE TO START PNET AFTER STOPPING AND STARTING VTAM      @DA41338  00891601
.* SUPPORT TCP/IP NODE                                        @D65CDHS  00891705
.* SUPPORT TCP/IP NODE USING SSL FEATURE                      @D66CDHS  00891808
.* ADDITION OF CNSLTR,SYSLST FIELDS FROM TDCB                 @D66CDSW  00891915
.*                                                                      00900000
         AGO   .ZZZ                                                     00950000
*        LICENSED MATERIALS - PROPERTY OF IBM                           01000000
*        THIS MACRO IS "RESTRICTED MATERIALS OF IBM"                    01050000
*        5686-CF7 (C) COPYRIGHT IBM CORP. 1979, 2004                    01100018
*        SEE COPYRIGHT INSTRUCTIONS                                     01150000
*                                                                       01200000
****** ***************************************************************  01250004
*                                                                       01300000
*        IPW$DPN MACRO INSTRUCTION                                      01350000
*                                                                       01400000
*        DEFINE PNET MASTER CONTROL BLOCK (PNCB)                        01450000
*                                                                       01500000
**********************************************************************  01550000
.ZZZ     ANOP                                                           01600000
.*                                                                      01650000
.* *******************************************************************  01700000
.*                                                                   *  01750000
.*       NOTE: TO MAKE PLS MACRO EXPANSION SUCCESSFUL FOLLOW THE     *  01800000
.*       =====  LISTED RULES IN THE ASSEMBLER PART OF THE MACRO:     *  01850000
.*             1- AVOID UNMATCHED APOSTROPHES!                       *  01900000
.*             2- AVOID UNMATCHED PLS COMMENT DELIMETERS!            *  01950000
.*             3- AVOID USE OF 'PERCENT SIGN' AND 'QUESTION MARK'!   *  02000000
.*                                                                   *  02050000
.* *******************************************************************  02100000
.*                                                                      02150000
.*                                                                      02200000
         TITLE 'VSE/POWER (PNET)  -  CONTROL BLOCK'                     02250000
         SPACE 1                                                        02300000
*********************************************************************** 02350000
* * *                                                             * * * 02400000
* * *          PNET MASTER CONTROL BLOCK                          * * * 02450000
* * *                                                             * * * 02500000
*********************************************************************** 02550000
         SPACE 1                                                        02600000
*        THE PNET CONTROL BLOCK (PNCB) IS CREATED AT VSE/POWER          02650000
*        INITIALIZATION, IF THE PNET FEATURE IS INSTALLED.              02700000
*                                                                       02750000
*        THE POINTER TO THE PNCB IS ANCHORED IN THE CAT LABEL 'CAPN'    02800000
         SPACE 1                                                        02850000
&PR      SETC  'PNCB'              USE THIS AS DEFAULT PREFIX           02900000
         AIF   (T'&OP1 EQ 'O').GND                                      02950000
         AIF   ('&OP1' EQ 'DEF').GN2                                    03000000
         MNOTE 3,' INVALID OPERAND, DSECT ASSUMED.'                     03050000
         AGO   .GND                                                     03100000
.GN2     ANOP                                                           03150000
&PR      SETC   'INPN'             NAMING PREFIX FOR SKELETON           03200000
         SPACE  1                                                       03250000
&PR.CB   DS    0F                  START PNET CONTROL BLOCK             03300000
         AGO   .GN3                                                     03350000
.GND     ANOP                                                           03400000
&PR.DS   DSECT                                                          03450000
.GN3     ANOP                                                           03500000
&PR.SD   IPW$DSD SECT=PNCB,REL=PNET STORAGE DESCRIPTOR                  03550000
&PR.NCB  DC    A(0)                ADDR. OF FIRST NCB                   03600000
&PR.TLD  DC    A(0)                ADDRESS OF LINE DRIVER TCB           03650000
&PR.NDT  DC    A(0)                ADDR. OF NETWORK DEFINITION TABLE    03700000
&PR.LKW  DC    A(0)                RESERVED FOR LOCKWORD                03750000
         SPACE 1                                                        03800000
&PR.VDCB DC    A(0)                ADDR. OF SNA CONTROL BLOCK           03850000
&PR.TNT  DC    A(0)                PTR TEMPORARY NAT TABLE              03900000
&PR.TDCB DC    A(0)                ADDR. OF TD-SUBTASK C-BLOCK @D65CDHS 03910011
&PR.SDCB DC    A(0)                ADDR. OF SD-SUBTASK C-BLOCK @D66CDHS 03911011
         SPACE 1                                                        03912012
&PR.STCB DC    A(0)                CNSLTR SYSLST TRACE CCB ADDR@D66CDSW 03920015
&PR.TRTA DC    X'00'               FLAG - SYSLST TRACE ACT(LOCK@D66CDSW 03920116
&PR.STDT DC    X'00'               SYSLST PUB DEVICE TYPE      @D66CDSW 03920215
&PR.TRST DC    X'00'               FLAG - SYSLST ASSIGNED      @D66CDSW 03921015
&PR.TRSI DC    X'00'               FLAG - SYSLST INITIALIZED   @D66CDSW 03921115
         SPACE 1                                                        03921712
         DC    A(0)                RESERVED FOR FUTURE USE     @D66CDHS 03922010
         DC    A(0)                RESERVED FOR FUTURE USE     @D65CDHS 03930010
         SPACE 1                                                        03950000
*********************************************************************** 04000000
*               LOAD ADDRESS LIST FOR PNET PHASES                     * 04050000
*********************************************************************** 04100000
         SPACE                                                          04150000
&PR.ALD  DC    C'LD A'             LINE DRIVER IPW$$LD                  04200000
&PR.ALD1 DC    C'LD1 '             LINE DRIVER IPW$$LD1        @D22DDHS 04250010
&PR.ALD2 DC    C'LD2 '             LINE DRIVER IPW$$LD2        @D22DDHS 04300010
&PR.ALD3 DC    C'LD3 '             LINE DRIVER IPW$$LD3        @D22DDHS 04350010
&PR.ALD4 DC    C'LD4 '             LINE DRIVER IPW$$LD4        @D22DDHS 04400010
&PR.ALD5 DC    C'LD5 '             LINE DRIVER IPW$$LD5        @D22DDHS 04450010
&PR.ANM  DC    C'NM A'             I/O MANAGER                          04500000
&PR.ANR  DC    C'NR A'             RECEIVER                             04550000
&PR.ANR2 DC    C'NR2 '             RECEIVER PART 2             @D51QDHS 04600010
&PR.ANP  DC    C'NP A'             PRESENTATION SERVICE                 04650000
&PR.ANT  DC    C'NT A'             TRANSMITTER                          04700000
&PR.ANC  DC    C'NC A'             COMPOSER                             04750000
&PR.ANK  DC    C'NK A'             COMPRESSION ROUTINE                  04800000
&PR.AOP  DC    C'S1  '             VTAM SUBTASK ENTRY POINT             04850000
&PR.ASE  DC    C'SE  '             SNA EXIT ROUTINES                    04900000
&PR.ASR  DC    C'SR  '             SNA SEND/RECEIVE FUNCTION AND EXIT   04950000
&PR.ACT  DC    C'S2  '             SNA SESSION BUILD (CONNECT)          05000000
&PR.ADT  DC    C'S3  '             SNA SESSION TERMINATE (DISCONNECT)   05050000
&PR.ABS  DC    C'BS  '             PHASE ADDR. OF BUFFER SERVICE        05100000
&PR.ATD  DC    C'TD  '             PHASE ADDR.(TCP/IP DRIVER)  @D65CDHS 05110001
&PR.ATS  DC    C'TS  '             PHASE ADDR.(IP SOCKET PROC.)@D65CDHS 05120001
&PR.ASD  DC    C'SD  '             PHASE ADDR.(SSL    DRIVER)  @D66CDHS 05121009
&PR.ASS  DC    C'SS  '             PHASE ADDR.(SSL SOCKET PROC)@D66CDHS 05122009
&PR.CPS  DC    C'CPSA'             PHASE ADDR. OF PSTART CMD PROCESSOR  05150000
&PR.CPF  DC    C'CPF '             PHASE ADDR. OF PFLUSH CMD PROCESSOR  05200000
&PR.HNR  EQU   (*-&PR.ALD)/4       NUMBER OF PHASES                     05250000
         SPACE                                                          05300000
*        THE FOLLOWING TWO ADDRESSES CONTAIN THE POINTER TO THE ERROR   05350000
*        EXIT ROUTINES FOR BOTH THE TRANSMITTER AND RECEIVER.           05400000
         SPACE 1                                                        05450000
&PR.ERNR DC    A(0)                ERROR EXIT ROUTINE OF RECEIVER       05500000
&PR.ERNT DC    A(0)                ERROR EXIT ROUTINE OF TRANSMITTER    05550000
         SPACE 1                                                        05600000
&PR.AUE  DC    A(0)                USER READER EXIT                     05650000
&PR.AUEL DC    H'0'                PNET EXIT WOR AREA SIZE     @D31EDIR 05700000
         SPACE 2                                               @D51TDTR 05750000
&PR.TUEL DC    H'0'                LENGTH OF XMTEXIT WORK AREA @D51TDTR 05800000
&PR.TUE  DC    A(0)                ADDRESS OF XMTEXIT          @D51TDTR 05850000
         DC    XL2'0'              RESERVED FOR FUTURE USE     @D31EDIR 05900000
         SPACE 2                                                        05950000
&PR.ST1  DC    X'00'               STATUS BYTE ONE             @DA41338 05983301
&PR.1DPS EQU   X'80'               .. DELAY PSTART PNET FOR SNA@DA41338 06016601
         DC    XL3'0'              RESERVED                             06050000
         SPACE 1                                                        06100000
*********************************************************************** 06150000
*              OWN NODE INFORMATION                                   * 06200000
*********************************************************************** 06250000
         SPACE 1                                                        06300000
&PR.ONN  DC    CL8' '              NODE NAME OF OUR SYSTEM              06350000
&PR.ONQ  DC    C' '                .. QUALIFIER                         06400000
&PR.NDTN DC    CL8' '              NDT PHASE NAME                       06450000
&PR.APPL DS    0CL9                OUR NODE'S APPL-ID PARAMETER         06500000
&PR.ALTH DC    XL1'8'              LENGTH OF APPLID                     06550000
*                                  (PNET USES DEFAULT OF 8)             06600000
&PR.APID DC    CL8' '              OUR NODE'S APPL-ID                   06650000
         SPACE 2                                               @DA41271 06666601
&PR.SECB DC    A(0)                SUBTASK-ECB FOR VTAM        @DA41271 06683201
         SPACE 2                                                        06700000
         DC    A(0)                RESERVED FOR FUTURE USE     @D66CDHS 06710010
*        DC    (((*-&PR.SD-1+8)/32+1)*32-(*-&PR.SD+8))AL1(0)   @D65CDHS 06750005
         SPACE 1                                                        06800000
&PR.LN   EQU   *-&PR.SD            LENGTH OF CONTROL BLOCK              06850000
         SPACE 1                                                        06900000
.*                                                                      06950000
.* **********************************************************        *  07000000
.*                                                                   *  07050000
.*       WARNING:  TO PREVENT VSE/POWER PROBLEMS                     *  07100000
.*       ========                                                    *  07150000
.*             THE MAPPING OF THE PLS STRUCTURE HAS TO MATCH         *  07200000
.*             WITH THE LAYOUT OF THE ASSEMBLER DSECT!               *  07250000
.*                                                                   *  07300000
.* *********************************************************         *  07350000
.*                                                                      07400000
         MEND                                                           07450000
*                                                                   */  07500000
*%PLSPNCB:;                  /* VSE/POWER PNET CONTROL BLOCK        */  07550000
*/*******************************************************************/  07600000
*/*                                                                 */  07650000
*/* IBM DISK OPERATING SYSTEM                                       */  07700000
*/* VSE/POWER - 5686-CF7-03                                         */  07750018
*/* IPW$DPN MACRO INSTRUCTION                                       */  07800000
*/*                                                                 */  07850000
*/* DEFINE PNET MASTER CONTROL BLOCK (PNCB)                         */  07900000
*/*                                                                 */  07950000
*/*******************************************************************/  08000000
*DECLARE                      /*                                    */  08050000
*1 PNCB BASED(CAPN) BDY(WORD),/* STRUCTURE DECLARATION              */  08100000
* 2 PNCBDS ,                  /* DSECT NAME FOR ASSEMBLER           */  08150000
*  3 PNCBSD  CHAR(16),        /* SECTION DESCRIPTOR                 */  08200000
*  3 PNCBNCB PTR(31),         /* 1ST NCB                            */  08250000
*  3 PNCBTLD PTR(31),         /* LINE DRIVER TCB                    */  08300000
*  3 PNCBNDT PTR(31),         /* NETWORK DEFINITION TABLE           */  08350000
*  3 PNCBLKW PTR(31),         /* RESERVED FOR LOCKWORD              */  08400000
*@SPACE;                                                                08450000
*  3 PNCBVDCB PTR(31),        /* ADDR. OF SNA CONTROL BLOCK         */  08500000
*  3 PNCBTNT PTR(31),         /* TEMPORARY NAT TABLE                */  08550000
*  3 PNCBTDCB PTR(31),        /* ADDR. OF TD-SUBTASK CBLOCK @D65CDHS*/  08560011
*  3 PNCBSDCB PTR(31),        /* ADDR. OF SD-SUBTASK CBLOCK @D66CDHS*/  08561011
*@SPACE;                                                                08561112
*  3 PNCBSTCB PTR(31),        /* ADDR. SYSLST CCB ADDR      @D66CDSW*/  08561215
*  3 PNCBTRTA  CHAR(1),       /* FLAG - SYSLST ACTIVE(LOCK) @D66CDSW*/  08561317
*  3 PNCBSTDT   BIN(8),       /* SYSLST PUB DEVICE TYPE     @D66CDSW*/  08561415
*  3 PNCBTRST   BIN(8),       /* FLAG - SYSLST ASSIGNED     @D66CDSW*/  08561515
*  3 PNCBTRSI   BIN(8),       /* FLAG - SYSLST INITILIZED   @D66CDSW*/  08561615
*@SPACE;                                                                08561814
*  3 *        PTR(31),        /* RESERVED FOR FUTURE USE    @D66CDHS*/  08590009
*  3 *        PTR(31),        /* RESERVED FOR FUTURE USE    @D65CDHS*/  08591009
*@SPACE;                                                                08600000
*/*******************************************************************/  08650000
*/*                                                                 */  08700000
*/* LOAD ADDRESS LIST FOR PNET PHASES                               */  08750000
*/*                                                                 */  08800000
*/*******************************************************************/  08850000
*@SPACE;                                                                08900000
*  3 PNCBADD ,                     /* ADDRESSES OF:                 */  08950000
*   5 PNCBALD  PTR(31),            /* LINE DRIVER IPW$$LD           */  09000000
*   5 PNCBALD1 PTR(31),            /* LINE DRIVER IPW$$LD1  @D22DDHS*/  09050000
*   5 PNCBALD2 PTR(31),            /* LINE DRIVER IPW$$LD2  @D22DDHS*/  09100000
*   5 PNCBALD3 PTR(31),            /* LINE DRIVER IPW$$LD3  @D22DDHS*/  09150000
*   5 PNCBALD4 PTR(31),            /* LINE DRIVER IPW$$LD4  @D22DDHS*/  09200000
*   5 PNCBALD5 PTR(31),            /* LINE DRIVER IPW$$LD5  @D22DDHS*/  09250000
*   5 PNCBANM PTR(31),             /* I/O MANAGER                   */  09300000
*   5 PNCBANR PTR(31),             /* RECEIVER                      */  09350000
*   5 PNCBANR2 PTR(31),            /* RECEIVER PART 2       @D51QDHS*/  09400000
*   5 PNCBANP PTR(31),             /* PRESENTATION SERVICE          */  09450000
*   5 PNCBANT PTR(31),             /* TRANSMITTER                   */  09500000
*   5 PNCBANC PTR(31),             /* COMPOSER                      */  09550000
*   5 PNCBANK PTR(31),             /* COMPRESSION ROUTINE           */  09600000
*   5 PNCBAOP PTR(31),             /* VSE SUBTASK ENTRY POINT       */  09650000
*   5 PNCBASE PTR(31),             /* SNA EXIT ROUTINES             */  09700000
*   5 PNCBASR PTR(31),             /* SNA SEND/RECEIVE FUNCT.+ EXIT */  09750000
*   5 PNCBACT PTR(31),             /* SNA SESSION BUILD (CONNECT)   */  09800000
*   5 PNCBADT PTR(31),             /* SNA SESSION TERMINATE (DISC.) */  09850000
*   5 PNCBABS PTR(31),             /* BUFFER SERVICES               */  09900000
*   5 PNCBATD PTR(31),             /* TCP/IP DRIVER         @D65CDHS*/  09910002
*   5 PNCBATS PTR(31),             /* IP SOCKET PROCESSOR   @D65CDHS*/  09920002
*   5 PNCBASD PTR(31),             /* SSL DRIVER            @D66CDHS*/  09930009
*   5 PNCBASS PTR(31),             /* SSL SOCKET PROCESSOR  @D66CDHS*/  09940009
*   5 PNCBCPS PTR(31),             /* PSTART COMMAND PROCESSOR      */  09950000
*   5 PNCBCPF PTR(31),             /* PFLUSH COMMAND PROCESSOR      */  10000000
*@EJECT;                                                                10050000
*/* ERROR EXITS FOR TRANSMITTER AND RECEIVER                        */  10100000
*@SPACE;                                                                10150000
*  3 PNCBERNR PTR(31) ,            /* COMPOSER                      */  10200000
*  3 PNCBERNT PTR(31) ,            /* PNET COMMAND PROCESSOR        */  10250000
*@SPACE;                                                                10300000
*/* USER EXITS FOR TRANSMITTER AND RECEIVER                 @D51TDTR*/  10350000
*@SPACE;                                                                10400000
*  3 PNCBAUE  PTR(31) ,            /* USER READER EXIT              */  10450000
*  3 PNCBAUEL FIXED(16),           /* EXIT WORK AREA SIZE   @D31EDIR*/  10500000
*  3 PNCBTUEL FIXED(16),           /* TR.EX. WORK AREA SIZE @D51TDTR*/  10550000
*  3 PNCBTUE  PTR(31),             /* USER TRANSMITTER EXIT @D31TDTR*/  10600000
*  3 *        CHAR(2),             /* RESERVED              @D31EDIR*/  10650000
*@SPACE;                                                                10700000
*  3 PNCBST1  BIT(8),              /* STATUS BYTE ONE       @DA41338*/  10725001
*    5 PNCB1DPS BIT(1),            /* .. DELAY PSTART PNET  @DA41338*/  10750001
*    5 *        BIT(7),            /* .. NOT USED           @DA41338*/  10775001
*  3 *        CHAR(3) ,            /* PADDING                       */  10800000
*@SPACE;                                                                10850000
*/*******************************************************************/  10900000
*/* OWN NODE DEFINITIONS                                            */  10950000
*/*******************************************************************/  11000000
*@SPACE;                                                                11050000
*  3 PNCBONN  CHAR(8),            /* NODE NAME OF OUR SYSTEM        */  11100000
*  3 PNCBONQ  CHAR(1),            /* .. QUALIFIER                   */  11150000
*  3 PNCBNDTN CHAR(8),            /* NDT PHASE NAME                 */  11200000
*  3 PNCBAPPL CHAR(9),            /* OUR NODE'S APPL-ID             */  11250000
*    5 PNCBALTH BIN(8),           /* LENGTH OF APPL-ID              */  11300000
*    5 PNCBAPID CHAR(8),          /* NAME OF APPL           @D51TDTR*/  11350000
*  3 PNCBSECB PTR(31),            /* SUBTASK-ECB FOR VTAM   @DA41271*/  11400001
*    5 *        CHAR(2),          /* .. NOT REFERENCED      @DA41271*/  11450001
*    5 PNCBSEPB CHAR(1),          /* .. POST BYTE           @DA41271*/  11500001
*      7 PNCBSELV BIT(1),         /* .. POST BIT            @DA41271*/  11550001
*    5 *        CHAR(1),          /* .. NOT REFERENCED      @DA41271*/  11600001
*  3 *        CHAR(4);            /* PADDING                @DA41271*/  11650001
