         MACRO                                                          00050000
&NAME    ISMOD &CORINDX=,&IOROUT=,&RECFORM=,&SEPASMB=,&TYPEFLE=,       X00100000
               &CORDATA=,&RDONLY=,&ERREXT=,&IOAREA2=,&HOLD=,           X00150000
               &RPS=                                           @DL30SMP 00200000
         LCLB  &SW(25)                                              3-4 00250000
         LCLC  &NM(7),&B(4)                                    @DL30SMP 00300000
         ACTR  1000                                                     00350000
.* IBM DISK OPERATING SYSTEM                                            00400000
* ISFMS - ISMOD - 5686-007-02-C440                             @U31TUJS 00450000
* COPYRIGHT = THIS MACRO IS "RESTRICTED MATERIALS OF IBM"      @D41TDKY 00500000
*             5686-007 (C) COPYRIGHT IBM CORP. 1977,1989       @U31TUJS 00550000
*             ALL RIGHTS RESERVED                              @U31TUJS 00600000
*             LICENSED MATERIALS - PROPERTY OF IBM             @U31TUJS 00650000
.*            SEE COPYRIGHT INSTRUCTIONS, G120-2083            @U31TUJS 00700000
         COPY  ISMOD0                                                   00750000
         COPY  ISMOD1                                                   00800000
         COPY  ISMOD3                                                   00850000
         COPY  ISMOD4                                          @DA27257 00900000
         COPY  ISMOD5                                                   00950000
         COPY  ISMOD6                                                   01000000
         COPY  ISMOD7                                                   01050000
         COPY  ISMOD8                                                   01100000
         COPY  ISMOD2                                                   01150000
         COPY  ISMOD9                                                   01200000
.AA      MEND                                                       3-9 01250000
