.* IBM DISK OPERATING SYSTEM                                            00050000
.* ISFMS - ISMOD1 - 5686-007-02-C440                           @U31TUJS 00100000
.* COPYRIGHT = THIS MACRO IS "RESTRICTED MATERIALS OF IBM"     @D41TDKY 00150000
.*             5686-007 (C) COPYRIGHT IBM CORP. 1977,1989      @U31TUJS 00200000
.*             ALL RIGHTS RESERVED                             @U31TUJS 00250000
.*             LICENSED MATERIALS - PROPERTY OF IBM            @U31TUJS 00300000
.*             SEE COPYRIGHT INSTRUCTIONS, G120-2083           @U31TUJS 00350000
* ISFMS - ISMOD1 - 5686-007-02-C440                            @U31TUJS 00400000
         AIF   ('&NAME' EQ '').BM                                   3-9 00450000
&NAME    CSECT                                                          00500000
         AGO   .CR                                                  3-4 00550000
.BM      ANOP                                                       3-9 00600000
IJH&NM(1)&NM(2)&NM(3)&NM(4)&NM(5)  CSECT                                00650000
         AIF   (NOT &SW(25)).BN                                     3-4 00700000
         ENTRY IJH&NM(1)&NM(2).S&NM(4)&NM(5)                        3-4 00750000
IJH&NM(1)&NM(2).S&NM(4)&NM(5)  EQU *                                3-4 00800000
         AIF   ('&NM(7)' EQ '&NM(4)').BO                            3-9 00850000
         ENTRY IJH&NM(1)&NM(2).S&NM(7)&NM(5)                        3-9 00900000
IJH&NM(1)&NM(2).S&NM(7)&NM(5)  EQU *                                3-9 00950000
.BN      AIF   ('&NM(7)' EQ '&NM(4)').BO                            3-9 01000000
         ENTRY IJH&NM(1)&NM(2)&NM(3)&NM(7)&NM(5)                    3-9 01050000
IJH&NM(1)&NM(2)&NM(3)&NM(7)&NM(5)  EQU *                            3-9 01100000
.BO      AIF   ('&NM(5)' EQ '&NM(6)').BQ                            3-9 01150000
         ENTRY IJH&NM(1)&NM(2)&NM(3)&NM(4)&NM(6)                    3-4 01200000
IJH&NM(1)&NM(2)&NM(3)&NM(4)&NM(6) EQU *                             3-4 01250000
         AIF   (NOT &SW(25)).BP                                     3-9 01300000
         ENTRY IJH&NM(1)&NM(2).S&NM(4)&NM(6)                        3-4 01350000
IJH&NM(1)&NM(2).S&NM(4)&NM(6)  EQU *                                3-4 01400000
.BP      AIF   ('&NM(7)' EQ '&NM(4)').BQ                            3-9 01450000
         ENTRY IJH&NM(1)&NM(2)&NM(3)&NM(7)&NM(6)                    3-9 01500000
IJH&NM(1)&NM(2)&NM(3)&NM(7)&NM(6)  EQU *                            3-9 01550000
         AIF   (NOT &SW(25)).BQ                                     3-9 01600000
         ENTRY IJH&NM(1)&NM(2).S&NM(7)&NM(6)                        3-9 01650000
IJH&NM(1)&NM(2).S&NM(7)&NM(6)  EQU *                                3-9 01700000
.BQ      AIF   (&SW(4)).BU             ADDRTR                       3-9 01750000
         AIF   (&SW(2)).BS             ADD                          3-9 01800000
         AIF   (NOT &SW(10)).CR        RANSEQ                       3-9 01850000
         ENTRY IJHZ&B(4).R&NM(7)&NM(5),IJHZ&B(4).S&NM(7)&NM(5) @DL30SMP 01900000
IJHZ&B(4).R&NM(7)&NM(5)  EQU *                                 @DL30SMP 01950000
IJHZ&B(4).S&NM(7)&NM(5)  EQU *                                 @DL30SMP 02000000
         AIF   ('&NM(7)' EQ '&NM(4)').BR                            3-9 02050000
         ENTRY IJHZ&B(4).R&NM(4)&NM(5)                         @DL30SMP 02100000
IJHZ&B(4).R&NM(4)&NM(5)  EQU *                                 @DL30SMP 02150000
         AIF   ('&NM(5)' EQ '&NM(6)').CR                            3-9 02200000
         ENTRY IJHZ&B(4).R&NM(4)&NM(6)                         @DL30SMP 02250000
IJHZ&B(4).R&NM(4)&NM(6)  EQU *                                 @DL30SMP 02300000
.BR      AIF   ('&NM(5)' EQ '&NM(6)').CR                            3-9 02350000
         ENTRY IJHZ&B(4).R&NM(7)&NM(6),IJHZ&B(4).S&NM(7)&NM(6) @DL30SMP 02400000
IJHZ&B(4).R&NM(7)&NM(6)  EQU *                                 @DL30SMP 02450000
IJHZ&B(4).S&NM(7)&NM(6)  EQU *                                 @DL30SMP 02500000
         AGO   .CR                                                  3-9 02550000
.BS      AIF   (NOT &SW(7)).CR                                      3-9 02600000
         ENTRY IJHU&B(2).Z&NM(7)&NM(5),IJHB&B(2).Z&NM(7)&NM(5) @DL30SMP 02650000
IJHU&B(2).Z&NM(7)&NM(5)  EQU *                                 @DL30SMP 02700000
IJHB&B(2).Z&NM(7)&NM(5)  EQU *                                 @DL30SMP 02750000
         AIF   ('&NM(7)' EQ '&NM(4)').BT                            3-9 02800000
         ENTRY IJHU&B(2).Z&NM(4)&NM(5),IJHB&B(2).Z&NM(4)&NM(5) @DL30SMP 02850000
IJHU&B(2).Z&NM(4)&NM(5)  EQU *                                 @DL30SMP 02900000
IJHB&B(2).Z&NM(4)&NM(5)  EQU *                                 @DL30SMP 02950000
         AIF   ('&NM(5)' EQ '&NM(6)').CR                            3-9 03000000
         ENTRY IJHU&B(2).Z&NM(4)&NM(6),IJHB&B(2).Z&NM(4)&NM(6) @DL30SMP 03050000
IJHU&B(2).Z&NM(4)&NM(6)  EQU *                                 @DL30SMP 03100000
IJHB&B(2).Z&NM(4)&NM(6)  EQU *                                 @DL30SMP 03150000
.BT      AIF   ('&NM(5)' EQ '&NM(6)').CR                            3-9 03200000
         ENTRY IJHU&B(2).Z&NM(7)&NM(6),IJHB&B(2).Z&NM(7)&NM(6) @DL30SMP 03250000
IJHU&B(2).Z&NM(7)&NM(6)  EQU *                                 @DL30SMP 03300000
IJHB&B(2).Z&NM(7)&NM(6)  EQU *                                 @DL30SMP 03350000
         AGO   .CR                                                  3-9 03400000
.BU      AIF   (NOT &SW(10)).B4        RANSEQ - PROCESS             3-9 03450000
         AIF   (NOT &SW(7)).BW         BOTH FIXBLK AND FIXUNB       3-9 03500000
         ENTRY IJHA&B(2).Z&NM(7)&NM(5),IJHA&B(1).R&NM(7)&NM(5) @DL30SMP 03550000
         ENTRY IJHA&B(1).S&NM(7)&NM(5),IJHB&B(1).B&NM(7)&NM(5) @DL30SMP 03600000
         ENTRY IJHU&B(1).B&NM(7)&NM(5)                         @DL30SMP 03650000
IJHA&B(2).Z&NM(7)&NM(5)  EQU  *                                @DL30SMP 03700000
IJHA&B(1).R&NM(7)&NM(5)  EQU  *                                @DL30SMP 03750000
IJHA&B(1).S&NM(7)&NM(5)  EQU  *                                @DL30SMP 03800000
IJHB&B(1).B&NM(7)&NM(5)  EQU  *                                @DL30SMP 03850000
IJHU&B(1).B&NM(7)&NM(5)  EQU  *                                @DL30SMP 03900000
         AIF   ('&NM(7)' EQ '&NM(4)').BV                            3-9 03950000
         ENTRY IJHA&B(2).Z&NM(4)&NM(5),IJHA&B(1).R&NM(4)&NM(5) @DL30SMP 04000000
         ENTRY IJHA&B(1).S&NM(4)&NM(5),IJHB&B(1).B&NM(4)&NM(5) @DL30SMP 04050000
         ENTRY IJHU&B(1).B&NM(4)&NM(5)                         @DL30SMP 04100000
IJHA&B(2).Z&NM(4)&NM(5)  EQU  *                                @DL30SMP 04150000
IJHA&B(1).R&NM(4)&NM(5)  EQU  *                                @DL30SMP 04200000
IJHA&B(1).S&NM(4)&NM(5)  EQU  *                                @DL30SMP 04250000
IJHB&B(1).B&NM(4)&NM(5)  EQU  *                                @DL30SMP 04300000
IJHU&B(1).B&NM(4)&NM(5)  EQU  *                                @DL30SMP 04350000
         AIF   ('&NM(5)' EQ '&NM(6)').BX                            3-9 04400000
         ENTRY IJHA&B(2).Z&NM(4)&NM(6),IJHA&B(1).R&NM(4)&NM(6) @DL30SMP 04450000
         ENTRY IJHA&B(1).S&NM(4)&NM(6),IJHB&B(1).B&NM(4)&NM(6) @DL30SMP 04500000
         ENTRY IJHU&B(1).B&NM(4)&NM(6)                         @DL30SMP 04550000
IJHA&B(2).Z&NM(4)&NM(6)  EQU  *                                @DL30SMP 04600000
IJHA&B(1).R&NM(4)&NM(6)  EQU  *                                @DL30SMP 04650000
IJHA&B(1).S&NM(4)&NM(6)  EQU  *                                @DL30SMP 04700000
IJHB&B(1).B&NM(4)&NM(6)  EQU  *                                @DL30SMP 04750000
IJHU&B(1).B&NM(4)&NM(6)  EQU  *                                @DL30SMP 04800000
.BV      AIF   ('&NM(5)' EQ '&NM(6)').BX                            3-9 04850000
         ENTRY IJHA&B(2).Z&NM(7)&NM(6),IJHA&B(1).R&NM(7)&NM(6) @DL30SMP 04900000
         ENTRY IJHA&B(1).S&NM(7)&NM(6),IJHB&B(1).B&NM(7)&NM(6) @DL30SMP 04950000
         ENTRY IJHU&B(1).B&NM(7)&NM(6)                         @DL30SMP 05000000
IJHA&B(2).Z&NM(7)&NM(6)  EQU  *                                @DL30SMP 05050000
IJHA&B(1).R&NM(7)&NM(6)  EQU  *                                @DL30SMP 05100000
IJHA&B(1).S&NM(7)&NM(6)  EQU  *                                @DL30SMP 05150000
IJHB&B(1).B&NM(7)&NM(6)  EQU  *                                @DL30SMP 05200000
IJHU&B(1).B&NM(7)&NM(6)  EQU  *                                @DL30SMP 05250000
         AGO   .BX                     SKIP FIXBLK CHECK            3-9 05300000
.BW      AIF   (NOT &SW(6)).B0         FIXBLK                       3-9 05350000
.BX      ENTRY IJHB&B(1).R&NM(7)&NM(5),IJHB&B(1).S&NM(7)&NM(5) @DL30SMP 05400000
         ENTRY IJHB&B(2).Z&NM(7)&NM(5)                         @DL30SMP 05450000
IJHB&B(1).R&NM(7)&NM(5)  EQU  *                                @DL30SMP 05500000
IJHB&B(1).S&NM(7)&NM(5)  EQU  *                                @DL30SMP 05550000
IJHB&B(2).Z&NM(7)&NM(5)  EQU  *                                @DL30SMP 05600000
         AIF   ('&NM(7)' EQ '&NM(4)').BY                            3-9 05650000
         ENTRY IJHB&B(1).R&NM(4)&NM(5),IJHB&B(1).S&NM(4)&NM(5) @DL30SMP 05700000
         ENTRY IJHB&B(2).Z&NM(4)&NM(5)                         @DL30SMP 05750000
IJHB&B(1).R&NM(4)&NM(5)  EQU  *                                @DL30SMP 05800000
IJHB&B(1).S&NM(4)&NM(5)  EQU  *                                @DL30SMP 05850000
IJHB&B(2).Z&NM(4)&NM(5)  EQU  *                                @DL30SMP 05900000
         AIF   ('&NM(5)' EQ '&NM(6)').BZ                            3-9 05950000
         ENTRY IJHB&B(1).R&NM(4)&NM(6),IJHB&B(1).S&NM(4)&NM(6) @DL30SMP 06000000
         ENTRY IJHB&B(2).Z&NM(4)&NM(6)                         @DL30SMP 06050000
IJHB&B(1).R&NM(4)&NM(6)  EQU  *                                @DL30SMP 06100000
IJHB&B(1).S&NM(4)&NM(6)  EQU  *                                @DL30SMP 06150000
IJHB&B(2).Z&NM(4)&NM(6)  EQU  *                                @DL30SMP 06200000
.BY      AIF   ('&NM(5)' EQ '&NM(6)').BZ                            3-9 06250000
         ENTRY IJHB&B(1).R&NM(7)&NM(6),IJHB&B(1).S&NM(7)&NM(6) @DL30SMP 06300000
         ENTRY IJHB&B(2).Z&NM(7)&NM(6)                         @DL30SMP 06350000
IJHB&B(1).R&NM(7)&NM(6)  EQU  *                                @DL30SMP 06400000
IJHB&B(1).S&NM(7)&NM(6)  EQU  *                                @DL30SMP 06450000
IJHB&B(2).Z&NM(7)&NM(6)  EQU  *                                @DL30SMP 06500000
.BZ      AIF   (NOT &SW(7)).B2         IF BOTH FALL THROUGH         3-9 06550000
.B0      ENTRY IJHU&B(1).R&NM(7)&NM(5),IJHU&B(1).S&NM(7)&NM(5) @DL30SMP 06600000
         ENTRY IJHU&B(2).Z&NM(7)&NM(5)                         @DL30SMP 06650000
IJHU&B(1).R&NM(7)&NM(5)  EQU  *                                @DL30SMP 06700000
IJHU&B(1).S&NM(7)&NM(5)  EQU  *                                @DL30SMP 06750000
IJHU&B(2).Z&NM(7)&NM(5)  EQU  *                                @DL30SMP 06800000
         AIF   ('&NM(7)' EQ '&NM(4)').B1                            3-9 06850000
         ENTRY IJHU&B(1).R&NM(4)&NM(5),IJHU&B(1).S&NM(4)&NM(5) @DL30SMP 06900000
         ENTRY IJHU&B(2).Z&NM(4)&NM(5)                         @DL30SMP 06950000
IJHU&B(1).R&NM(4)&NM(5)  EQU  *                                @DL30SMP 07000000
IJHU&B(1).S&NM(4)&NM(5)  EQU  *                                @DL30SMP 07050000
IJHU&B(2).Z&NM(4)&NM(5)  EQU  *                                @DL30SMP 07100000
         AIF   ('&NM(5)' EQ '&NM(6)').B2                            3-9 07150000
         ENTRY IJHU&B(1).R&NM(4)&NM(6),IJHU&B(1).S&NM(4)&NM(6) @DL30SMP 07200000
         ENTRY IJHU&B(2).Z&NM(4)&NM(6)                         @DL30SMP 07250000
IJHU&B(1).R&NM(4)&NM(6)  EQU  *                                @DL30SMP 07300000
IJHU&B(1).S&NM(4)&NM(6)  EQU  *                                @DL30SMP 07350000
IJHU&B(2).Z&NM(4)&NM(6)  EQU  *                                @DL30SMP 07400000
.B1      AIF   ('&NM(5)' EQ '&NM(6)').B2                            3-9 07450000
         ENTRY IJHU&B(1).R&NM(7)&NM(6),IJHU&B(1).S&NM(7)&NM(6) @DL30SMP 07500000
         ENTRY IJHU&B(2).Z&NM(7)&NM(6)                         @DL30SMP 07550000
IJHU&B(1).R&NM(7)&NM(6)  EQU  *                                @DL30SMP 07600000
IJHU&B(1).S&NM(7)&NM(6)  EQU  *                                @DL30SMP 07650000
IJHU&B(2).Z&NM(7)&NM(6)  EQU  *                                @DL30SMP 07700000
.B2      ANOP                                                       3-9 07750000
         ENTRY IJHZ&B(4).B&NM(7)&NM(5),IJHZ&B(4).R&NM(7)&NM(5) @DL30SMP 07800000
         ENTRY IJHZ&B(4).S&NM(7)&NM(5)                         @DL30SMP 07850000
IJHZ&B(4).B&NM(7)&NM(5)  EQU  *                                @DL30SMP 07900000
IJHZ&B(4).R&NM(7)&NM(5)  EQU  *                                @DL30SMP 07950000
IJHZ&B(4).S&NM(7)&NM(5)  EQU  *                                @DL30SMP 08000000
         AIF   ('&NM(7)' EQ '&NM(4)').B3                            3-9 08050000
         ENTRY IJHZ&B(4).B&NM(4)&NM(5),IJHZ&B(4).R&NM(4)&NM(5) @DL30SMP 08100000
IJHZ&B(4).B&NM(4)&NM(5)  EQU  *                                @DL30SMP 08150000
IJHZ&B(4).R&NM(4)&NM(5)  EQU  *                                @DL30SMP 08200000
         AIF   ('&NM(5)' EQ '&NM(6)').CR                            3-9 08250000
         ENTRY IJHZ&B(4).B&NM(4)&NM(6),IJHZ&B(4).R&NM(4)&NM(6) @DL30SMP 08300000
IJHZ&B(4).B&NM(4)&NM(6)  EQU  *                                @DL30SMP 08350000
IJHZ&B(4).R&NM(4)&NM(6)  EQU  *                                @DL30SMP 08400000
.B3      AIF   ('&NM(5)' EQ '&NM(6)').CR                            3-9 08450000
         ENTRY IJHZ&B(4).B&NM(7)&NM(6),IJHZ&B(4).R&NM(7)&NM(6) @DL30SMP 08500000
         ENTRY IJHZ&B(4).S&NM(7)&NM(6)                         @DL30SMP 08550000
IJHZ&B(4).B&NM(7)&NM(6)  EQU  *                                @DL30SMP 08600000
IJHZ&B(4).R&NM(7)&NM(6)  EQU  *                                @DL30SMP 08650000
IJHZ&B(4).S&NM(7)&NM(6)  EQU  *                                @DL30SMP 08700000
         AGO   .CR                                                  3-9 08750000
.B4      AIF   (NOT &SW(9)).CH         NOT SEQ-IT MUST BE RANDOM    3-9 08800000
         AIF   (NOT &SW(7)).B9         BOTH                         3-9 08850000
         ENTRY IJHA&B(2).Z&NM(7)&NM(5),IJHB&B(1).S&NM(7)&NM(5) @DL30SMP 08900000
         ENTRY IJHU&B(1).S&NM(7)&NM(5)                         @DL30SMP 08950000
IJHA&B(2).Z&NM(7)&NM(5)  EQU  *                                @DL30SMP 09000000
IJHB&B(1).S&NM(7)&NM(5)  EQU  *                                @DL30SMP 09050000
IJHU&B(1).S&NM(7)&NM(5)  EQU  *                                @DL30SMP 09100000
         AIF   (NOT &SW(25)).B5        'G' ONLY IF IOAREA2          3-9 09150000
         ENTRY IJHB&B(1).G&NM(7)&NM(5),IJHU&B(1).G&NM(7)&NM(5) @DL30SMP 09200000
IJHB&B(1).G&NM(7)&NM(5)  EQU  *                                @DL30SMP 09250000
IJHU&B(1).G&NM(7)&NM(5)  EQU  *                                @DL30SMP 09300000
.B5      AIF   ('&NM(7)' EQ '&NM(4)').B7                            3-9 09350000
         ENTRY IJHA&B(2).Z&NM(4)&NM(5),IJHB&B(1).S&NM(4)&NM(5) @DL30SMP 09400000
         ENTRY IJHU&B(1).S&NM(4)&NM(5)                         @DL30SMP 09450000
IJHA&B(2).Z&NM(4)&NM(5)  EQU  *                                @DL30SMP 09500000
IJHB&B(1).S&NM(4)&NM(5)  EQU  *                                @DL30SMP 09550000
IJHU&B(1).S&NM(4)&NM(5)  EQU  *                                @DL30SMP 09600000
         AIF   (NOT &SW(25)).B6        IOAREA2                      3-9 09650000
         ENTRY IJHB&B(1).G&NM(4)&NM(5),IJHU&B(1).G&NM(4)&NM(5) @DL30SMP 09700000
IJHB&B(1).G&NM(4)&NM(5)  EQU  *                                @DL30SMP 09750000
IJHU&B(1).G&NM(4)&NM(5)  EQU  *                                @DL30SMP 09800000
.B6      AIF   ('&NM(5)' EQ '&NM(6)').CA                            3-9 09850000
         ENTRY IJHA&B(2).Z&NM(4)&NM(6),IJHB&B(1).S&NM(4)&NM(6) @DL30SMP 09900000
         ENTRY IJHU&B(1).S&NM(4)&NM(6)                         @DL30SMP 09950000
IJHA&B(2).Z&NM(4)&NM(6)  EQU  *                                @DL30SMP 10000000
IJHB&B(1).S&NM(4)&NM(6)  EQU  *                                @DL30SMP 10050000
IJHU&B(1).S&NM(4)&NM(6)  EQU  *                                @DL30SMP 10100000
         AIF   (NOT &SW(25)).B8        IOAREA2                      3-9 10150000
         ENTRY IJHB&B(1).G&NM(4)&NM(6),IJHU&B(1).G&NM(4)&NM(6) @DL30SMP 10200000
IJHB&B(1).G&NM(4)&NM(6)  EQU  *                                @DL30SMP 10250000
IJHU&B(1).G&NM(4)&NM(6)  EQU  *                                @DL30SMP 10300000
.B7      AIF   ('&NM(5)' EQ '&NM(6)').CA                            3-9 10350000
.B8      ENTRY IJHA&B(2).Z&NM(7)&NM(6),IJHB&B(1).S&NM(7)&NM(6) @DL30SMP 10400000
         ENTRY IJHU&B(1).S&NM(7)&NM(6)                         @DL30SMP 10450000
IJHA&B(2).Z&NM(7)&NM(6)  EQU  *                                @DL30SMP 10500000
IJHB&B(1).S&NM(7)&NM(6)  EQU  *                                @DL30SMP 10550000
IJHU&B(1).S&NM(7)&NM(6)  EQU  *                                @DL30SMP 10600000
         AIF   (NOT &SW(25)).CA        IOAREA2                      3-9 10650000
         ENTRY IJHB&B(1).G&NM(7)&NM(6),IJHU&B(1).G&NM(7)&NM(6) @DL30SMP 10700000
IJHB&B(1).G&NM(7)&NM(6)  EQU  *                                @DL30SMP 10750000
IJHU&B(1).G&NM(7)&NM(6)  EQU  *                                @DL30SMP 10800000
         AGO   .CA                     SKIP FIXBLK CHECK            3-9 10850000
.B9      AIF   (NOT &SW(6)).CD         FIXBLK                       3-9 10900000
.CA      ENTRY IJHB&B(2).Z&NM(7)&NM(5)                         @DL30SMP 10950000
IJHB&B(2).Z&NM(7)&NM(5)  EQU  *                                @DL30SMP 11000000
         AIF   ('&NM(7)' EQ '&NM(4)').CB                            3-9 11050000
         ENTRY IJHB&B(2).Z&NM(4)&NM(5)                         @DL30SMP 11100000
IJHB&B(2).Z&NM(4)&NM(5)  EQU  *                                @DL30SMP 11150000
         AIF   ('&NM(5)' EQ '&NM(6)').CC                            3-9 11200000
         ENTRY IJHB&B(2).Z&NM(4)&NM(6)                         @DL30SMP 11250000
IJHB&B(2).Z&NM(4)&NM(6)  EQU  *                                @DL30SMP 11300000
.CB      AIF   ('&NM(5)' EQ '&NM(6)').CC                            3-9 11350000
         ENTRY IJHB&B(2).Z&NM(7)&NM(6)                         @DL30SMP 11400000
IJHB&B(2).Z&NM(7)&NM(6)  EQU  *                                @DL30SMP 11450000
.CC      AIF   (NOT &SW(7)).CF         BOTH                         3-9 11500000
.CD      ENTRY IJHU&B(2).Z&NM(7)&NM(5)                         @DL30SMP 11550000
IJHU&B(2).Z&NM(7)&NM(5)  EQU  *                                @DL30SMP 11600000
         AIF   ('&NM(7)' EQ '&NM(4)').CE                            3-9 11650000
         ENTRY IJHU&B(2).Z&NM(4)&NM(5)                         @DL30SMP 11700000
IJHU&B(2).Z&NM(4)&NM(5)  EQU  *                                @DL30SMP 11750000
         AIF   ('&NM(5)' EQ '&NM(6)').CF                            3-9 11800000
         ENTRY IJHU&B(2).Z&NM(4)&NM(6)                         @DL30SMP 11850000
IJHU&B(2).Z&NM(4)&NM(6)  EQU  *                                @DL30SMP 11900000
.CE      AIF   ('&NM(5)' EQ '&NM(6)').CF                            3-9 11950000
         ENTRY IJHU&B(2).Z&NM(7)&NM(6)                         @DL30SMP 12000000
IJHU&B(2).Z&NM(7)&NM(6)  EQU  *                                @DL30SMP 12050000
.CF      ANOP                                                       3-9 12100000
         ENTRY IJHZ&B(4).S&NM(7)&NM(5)                         @DL30SMP 12150000
IJHZ&B(4).S&NM(7)&NM(5)  EQU  *                                @DL30SMP 12200000
         AIF   (NOT &SW(25)).CG        IOAREA2                      3-9 12250000
         ENTRY IJHZ&B(4).G&NM(7)&NM(5)                         @DL30SMP 12300000
IJHZ&B(4).G&NM(7)&NM(5)  EQU  *                                @DL30SMP 12350000
.CG      AIF   ('&NM(5)' EQ '&NM(6)').CR                            3-9 12400000
         ENTRY IJHZ&B(4).S&NM(7)&NM(6)                         @DL30SMP 12450000
IJHZ&B(4).S&NM(7)&NM(6)  EQU  *                                @DL30SMP 12500000
         AIF   (NOT &SW(25)).CR        IOAREA2                      3-9 12550000
         ENTRY IJHZ&B(4).G&NM(7)&NM(6)                         @DL30SMP 12600000
IJHZ&B(4).G&NM(7)&NM(6)  EQU  *                                @DL30SMP 12650000
         AGO   .CR                                                  3-9 12700000
.CH      AIF   (NOT &SW(7)).CJ         FIXBLK                       3-9 12750000
         ENTRY IJHA&B(2).Z&NM(7)&NM(5),IJHB&B(1).R&NM(7)&NM(5) @DL30SMP 12800000
         ENTRY IJHU&B(1).R&NM(7)&NM(5)                         @DL30SMP 12850000
IJHA&B(2).Z&NM(7)&NM(5)  EQU  *                                @DL30SMP 12900000
IJHB&B(1).R&NM(7)&NM(5)  EQU  *                                @DL30SMP 12950000
IJHU&B(1).R&NM(7)&NM(5)  EQU  *                                @DL30SMP 13000000
         AIF   ('&NM(7)' EQ '&NM(4)').CI                            3-9 13050000
         ENTRY IJHA&B(2).Z&NM(4)&NM(5),IJHB&B(1).R&NM(4)&NM(5) @DL30SMP 13100000
         ENTRY IJHU&B(1).R&NM(4)&NM(5)                         @DL30SMP 13150000
IJHA&B(2).Z&NM(4)&NM(5)  EQU  *                                @DL30SMP 13200000
IJHB&B(1).R&NM(4)&NM(5)  EQU  *                                @DL30SMP 13250000
IJHU&B(1).R&NM(4)&NM(5)  EQU  *                                @DL30SMP 13300000
         AIF   ('&NM(5)' EQ '&NM(6)').CK                            3-9 13350000
         ENTRY IJHA&B(2).Z&NM(4)&NM(6),IJHB&B(1).R&NM(4)&NM(6) @DL30SMP 13400000
         ENTRY IJHU&B(1).R&NM(4)&NM(6)                         @DL30SMP 13450000
IJHA&B(2).Z&NM(4)&NM(6)  EQU  *                                @DL30SMP 13500000
IJHB&B(1).R&NM(4)&NM(6)  EQU  *                                @DL30SMP 13550000
IJHU&B(1).R&NM(4)&NM(6)  EQU  *                                @DL30SMP 13600000
.CI      AIF   ('&NM(5)' EQ '&NM(6)').CK                            3-9 13650000
         ENTRY IJHA&B(2).Z&NM(7)&NM(6),IJHB&B(1).R&NM(7)&NM(6) @DL30SMP 13700000
         ENTRY IJHU&B(1).R&NM(7)&NM(6)                         @DL30SMP 13750000
IJHA&B(2).Z&NM(7)&NM(6)  EQU  *                                @DL30SMP 13800000
IJHB&B(1).R&NM(7)&NM(6)  EQU  *                                @DL30SMP 13850000
IJHU&B(1).R&NM(7)&NM(6)  EQU  *                                @DL30SMP 13900000
         AGO   .CK                     SKIP FIXBLK CHECK            3-9 13950000
.CJ      AIF   (NOT &SW(6)).CN         BOTH                         3-9 14000000
.CK      ENTRY IJHB&B(2).Z&NM(7)&NM(5)                         @DL30SMP 14050000
IJHB&B(2).Z&NM(7)&NM(5)  EQU  *                                @DL30SMP 14100000
         AIF   ('&NM(7)' EQ '&NM(4)').CL                            3-9 14150000
         ENTRY IJHB&B(2).Z&NM(4)&NM(5)                         @DL30SMP 14200000
IJHB&B(2).Z&NM(4)&NM(5)  EQU  *                                @DL30SMP 14250000
         AIF   ('&NM(5)' EQ '&NM(6)').CM                            3-9 14300000
         ENTRY IJHB&B(2).Z&NM(4)&NM(6)                         @DL30SMP 14350000
IJHB&B(2).Z&NM(4)&NM(6)  EQU  *                                @DL30SMP 14400000
.CL      AIF   ('&NM(5)' EQ '&NM(6)').CM                            3-9 14450000
         ENTRY IJHB&B(2).Z&NM(7)&NM(6)                         @DL30SMP 14500000
IJHB&B(2).Z&NM(7)&NM(6)  EQU  *                                @DL30SMP 14550000
.CM      AIF   (NOT &SW(7)).CP         FIXBLK                       3-9 14600000
.CN      ENTRY IJHU&B(2).Z&NM(7)&NM(5)                         @DL30SMP 14650000
IJHU&B(2).Z&NM(7)&NM(5)  EQU  *                                @DL30SMP 14700000
         AIF   ('&NM(7)' EQ '&NM(4)').CO                            3-9 14750000
         ENTRY IJHU&B(2).Z&NM(4)&NM(5)                         @DL30SMP 14800000
IJHU&B(2).Z&NM(4)&NM(5)  EQU  *                                @DL30SMP 14850000
         AIF   ('&NM(5)' EQ '&NM(6)').CP                            3-9 14900000
         ENTRY IJHU&B(2).Z&NM(4)&NM(6)                         @DL30SMP 14950000
IJHU&B(2).Z&NM(4)&NM(6)  EQU  *                                @DL30SMP 15000000
.CO      AIF   ('&NM(5)' EQ '&NM(6)').CP                            3-9 15050000
         ENTRY IJHU&B(2).Z&NM(7)&NM(6)                         @DL30SMP 15100000
IJHU&B(2).Z&NM(7)&NM(6)  EQU  *                                @DL30SMP 15150000
.CP      ANOP                                                       3-9 15200000
         ENTRY IJHZ&B(4).R&NM(7)&NM(5)                         @DL30SMP 15250000
IJHZ&B(4).R&NM(7)&NM(5)  EQU  *                                @DL30SMP 15300000
         AIF   ('&NM(7)' EQ '&NM(4)').CQ                            3-9 15350000
         ENTRY IJHZ&B(4).R&NM(4)&NM(5)                         @DL30SMP 15400000
IJHZ&B(4).R&NM(4)&NM(5)  EQU  *                                @DL30SMP 15450000
         AIF   ('&NM(5)' EQ '&NM(6)').CR                            3-9 15500000
         ENTRY IJHZ&B(4).R&NM(4)&NM(6)                         @DL30SMP 15550000
IJHZ&B(4).R&NM(4)&NM(6)  EQU  *                                @DL30SMP 15600000
.CQ      AIF   ('&NM(5)' EQ '&NM(6)').CR                            3-9 15650000
         ENTRY IJHZ&B(4).R&NM(7)&NM(6)                         @DL30SMP 15700000
IJHZ&B(4).R&NM(7)&NM(6)  EQU  *                                @DL30SMP 15750000
.CR      ANOP                                                       3-9 15800000
IJHREG0  EQU   0                       REGISTER 0                   3-9 15850000
IJHREG1  EQU   1                       REGISTER 1                   3-9 15900000
IJHREG2  EQU   2                       REGISTER 2                   3-9 15950000
IJHREG4  EQU   4                       REGISTER 4                   3-9 16000000
IJHREG5  EQU   5                       REGISTER 5                   3-9 16050000
IJHREG7  EQU   7                       REGISTER 7                   3-9 16100000
IJHREG8  EQU   8                       REGISTER 8                   3-9 16150000
IJHREG9  EQU   9                       REGISTER 9                   3-9 16200000
IJHREG10 EQU   10                      REGISTER 10                  3-9 16250000
IJHREG11 EQU   11                      REGISTER 11                  3-9 16300000
IJHREG12 EQU   12                      REGISTER 12                  3-9 16350000
IJHREG13 EQU   13                      REGISTER 13                  3-9 16400000
IJHREG14 EQU   14                      REGISTER 14                  3-9 16450000
IJHREG15 EQU   15                      REGISTER 15                  3-9 16500000
IJHZERO  EQU   0                       OPERAND FOR RR INSTRUCTIONS  3-9 16550000
IJH0     EQU   0                       OPERAND FOR LA INST'S   @DL30SMP 16600000
IJHD8    EQU   8                       DISPLACEMENT OF 8       @DL30SMP 16650000
IJHDL8   EQU   8                       CONSTANT OF 8                3-9 16700000
IJHDL44  EQU   44                      CONSTANT OF 44               3-9 16750000
IJHDL48  EQU   48                      CONSTANT OF 48               3-9 16800000
IJHSVC50 EQU   50                      ILLEGAL SVC 50               3-9 16850000
IJHSKSW  EQU   X'01'                   SEEK SWITCH BIT              3-9 16900000
IJHFILBK EQU   X'01'                   FILLED BLOCK INDICATOR       3-9 16950000
IJHWRTSW EQU   X'02'                   WRITE ISSUED INDICATOR       3-9 17000000
IJHRCYLX EQU   X'22'                   INDICATE READ CYL INDEX      3-9 17050000
IJHGETSW EQU   X'40'                   GET ISSUED SWITCH            3-9 17100000
IJHWAITF EQU   X'80'                   WAITF INDICATOR              3-9 17150000
IJHERREX EQU   X'10'                   ERREXT DTF                   3-9 17200000
IJHNOVFL EQU   X'FF'                   INDICATE END OF OVFL CHAIN   3-9 17250000
IJHVD24  EQU   24                      DISPLACEMENT OF 24      @DL30SMP 17300000
IJHVD32  EQU   32                      DISPLACEMENT OF 32      @DM08009 17350000
IJHVD56  EQU   56                      DISPLACEMENT OF 56      @DL30SMP 17400000
         AIF   (NOT &SW(11)).CR1                                    3-9 17450000
IJHDL1   EQU   1                       CONSTANT OF 1                3-9 17500000
IJHDL2   EQU   2                       CONSTANT OF 2                3-9 17550000
IJHDL3   EQU   3                       CONSTANT OF 3                3-9 17600000
IJHDL7   EQU   7                       CONSTANT OF 7                3-9 17650000
IJHM4    EQU   2                       MULTIPLICATION BY 4          3-9 17700000
IJHSVC7  EQU   7                       WAIT SVC 7                   3-9 17750000
IJHSVC35 EQU   35                      READ/HOLD SVC 35             3-9 17800000
IJHSVC36 EQU   36                      FREE SVC 36                  3-9 17850000
IJHIOA2  EQU   X'01'                   INDICATE 2 I/O AREAS         3-9 17900000
IJHGETOV EQU   X'02'                   SWITCH FOR OVERFLOW GET      3-9 17950000
IJHIO2US EQU   X'02'                   INDICATE IOAREA2 JUST USED   3-9 18000000
IJHOVFL  EQU   X'04'                   OVERFLOW SWITCH              3-9 18050000
IJHBLKD  EQU   X'08'                   INDICATE BLOCKED FILE        3-9 18100000
IJHFIRST EQU   X'08'                   FIRST TIME SWITCH            3-9 18150000
IJHRDWRK EQU   X'12'                   READ, WRITE KEY BITS         3-9 18200000
IJHOVIND EQU   X'20'                   READ OVFL RECORD SWITCH      3-9 18250000
IJHWTBIT EQU   X'80'                   TRAFFIC BIT IN CCB           3-9 18300000
IJHRDERR EQU   X'D0'                   READ ERROR BITS              3-9 18350000
IJHINVAL EQU   X'FF'                   INVALID LOGICAL UNIT         3-9 18400000
.CR1     ANOP                                                       3-9 18450000
         AIF   (NOT &SW(15)).CR2       RPS NOT SPECIFIED       @DL30SMP 18500000