         MACRO                                                          00060000
&NAME    IWAIT  &CCB,&ECB=,&ECBLIST=                                    00070003
*        SUPERVISOR - IWAIT - 5686-066-06                               00200002
         AGO   .ZZZ                                                     00250002
***********************************************************             00260002
*                                                         *             00270002
*        LICENSED MATERIALS - PROPERTY OF IBM             *             00280002
*        THIS MACRO IS "RESTRICTED MATERIALS OF IBM"      *             00290002
*        5686-066 (C) COPYRIGHT IBM CORP. 1977, 2000      *             00291002
*        SEE COPYRIGHT INSTRUCTIONS                       *             00292002
*                                                         *             00293002
***********************************************************             00294002
.ZZZ     ANOP                                                           00550002
         AIF   (T'&ECB NE 'O').BTAM                                     00570003
         AIF   (T'&ECBLIST NE 'O').BTAM1                                00580003
         AIF   (T'&CCB NE 'O').L1                                       00650000
 MNOTE 5,'CCB OMITTED - MACRO IGNORED'                                  00700000
         MEXIT                                                          00750000
.L1      AIF   ('&CCB'(1,1) EQ '(').L2                                  00800000
&NAME    L     1,=A(&CCB)                                               00850000
         AGO   .L3                                                      00900000
.L2      AIF   ('&CCB'(2,2) EQ '1)').L4                                 00950000
&NAME    LR    1,&CCB(1)                                                01000000
         AGO   .L3                                                      01050000
.L4      ANOP                                                           01100000
&NAME    TM    2(1),X'80'                                               01150000
         AGO   .L5                                                      01200000
.L3      TM    2(1),X'80'                                               01250000
.L5      BO    *+6                                                      01300000
         SVC   7                                                        01350000
         MEXIT                                                          01360003
.BTAM    ANOP                                                           01370003
 MNOTE 4,'OPERAND ECB IS NO LONGER SUPPORTED - MACRO IGNORED'           01380003
.BTAM1   ANOP                                                           01390003
 MNOTE 4,'OPERAND ECBLIST IS NO LONGER SUPPORTED - MACRO IGNORED'       01400003
         MEND                                                           01550000
