         MACRO                                                          00050000
&NAME    JDUMP                                                          00100000
.* IBM DISK OPERATING SYSTEM                                            00150000
* SUPERVISOR - JDUMP - 5686-007-06 - C44                                00200000
&NAME    LA    1,=CL8'$$BJDUMP'                                         00250000
         SVC   2                                                        00300000
         MEND                                                           00350000
