*%GOTO  MLBSERV; /*PLX COMMENT TO AVOID UNMATCHED QUOTE PROBLEMS        00010006
         MACRO                                                          00020006
&NAME    LBSERV &FUNC=,&CUU=,&VOLSER=,&ECB=,&SERVL=,&LIBNAME=,&WRITE=, X00030006
               &SRCCAT=,&TGTCAT=,&MEMNAME=,&LIST=                       00040033
         LCLA  &BASEREG       BASE OF SERVICE LIST                      00050006
         LCLA  &WREG1         WORK REGISTER                             00060006
         LCLA  &BRREG         BRANCH REGISTER                           00070006
         LCLA  &RETREG        RETRUN REGISTER                           00080006
         LCLA  &SAVREG        USER'S SAVE AREA REGISTER                 00090006
         LCLA  &ERROR         ERRORS DETECTED                           00100006
         LCLA  &WRT           MOUNT FOR READ WRITE                      00110006
         LCLA  &FCOD1         FUNCTION CODE PART 1                      00120006
         LCLA  &FCOD2         FUNCTION CODE PART 1                      00130006
         LCLC  &FCODE         FUNCTION CODE                             00140006
         LCLC  &TEMP1         WORK FOR REGISTER SPECIFICATION           00150006
         LCLC  &TEMP2         WORK FOR REGISTER SPECIFICATION           00160006
         LCLC  &TEMP3         WORK FOR REGISTER SPECIFICATION           00170006
         LCLC  &TEMP4         WORK FOR REGISTER SPECIFICATION           00180006
         LCLC  &TEMP5         WORK FOR REGISTER SPECIFICATION           00190006
         LCLC  &TEMP6         WORK FOR REGISTER SPECIFICATION           00200006
         LCLC  &TEMP7         WORK FOR REGISTER SPECIFICATION           00210006
         LCLC  &TEMP8         WORK FOR REGISTER SPECIFICATION           00220006
         LCLC  &TEMP9         WORK FOR REGISTER SPECIFICATION           00230006
         LCLC  &TEMPA         WORK FOR REGISTER SPECIFICATION           00231022
         LCLC  &L1            WORK FOR LABEL                            00240006
         LCLC  &L2            WORK FOR LABEL                            00250006
.*                                                                      00260006
         AGO   .ZZZ                                                     00270006
*********************************************************************** 00280006
*                                                                     * 00290006
*        LICENSED MATERIALS - PROGRAM PROPERTY OF IBM                 * 00300006
*        THIS MACRO IS "RESTRICTED MATERIALS OF IBM"                  * 00310006
*        5686-CF7 (C) COPYRIGHT IBM CORP. 1995,2004                   * 00320034
.*       SEE COPYRIGHT INSTRUCTIONS                                   * 00330006
*                                                                     * 00340006
*********************************************************************** 00350006
.ZZZ     ANOP                                                           00360006
.*-------------------------------------------------------------         00370006
.* /* START OF SPECIFICATIONS *********************************         00380006
.*01* MODULE TYPE = USER INTERFACE MACRO                                00390006
.*                                                                      00400006
.*01* DESCRIPTIVE NAME = ESTABLISH EXIT ROUTINE FOR I/O REQUEST         00410006
.*                                                                      00420006
.*01* NOTES = CHANGE ACTIVITY                                           00430006
.*    NEW MODULE - FIRST RELEASE  ESA 2.1.0                    @D61ADMK 00440006
.*    API EXTENSION                                            @D61ADMK 00450006
.* A000000-999999                                              @D61ADMK 00460006
.*    MAKE CUU OPTIONAL PARAMETER FOR SQUERY                   @D61ADMK 00470006
.*    SERVICE LIST IN REG1 ALSO FOR NON-REGISTER NOTATION      @DY44241 00480006
.*    ENHANCEMENTS FOR VSE NATIVE SUPPORT                      @D68CDAK 00481015
.*    EXPORT / IMPORT REQUESTS                                 @D68KDAK 00482016
.*                                                                      00490006
.**************************************************************         00500006
.*                                                                      00510006
.*  MACRO DESCRIPTION                                                   00520006
.*                                                                      00530006
.* ARGUMENT LIST DESCRIPTION:                                           00540006
.*                                                                      00550006
.*  EIGHT POSITIONAL OPERANDS HAVE TO BE SPECIFIED.                     00560006
.*                                                                      00570006
.*  THE FUNC OPERAND SPECIFIES                                          00580006
.*    MOUNT OF A VOLUME ON A DEVICE IN THE LIBRARY                      00590006
.*    SQUERY A VOLUME'S LOCATION (SINGLE QUERY)                         00600006
.*    AQUERY A VOLUME'S LOCATION (ALL LIBRARIES)                        00610006
.*    RELEASE A VOLUME ON A DEVICE IN A LIBRARY                         00620006
.*    CANCEL THE PRIOR MOUNT REQUEST                                    00630006
.*    RECEIVE THE INFO IN SERVL (OUTPUT)                                00640006
.*    EJECT A VOLUME FROM A LIBRARY                                     00650006
.*    CMOUNT A VOLUME OF A CATEGORY ON A DEVICE IN THE LIBRARY          00660006
.*    CQUERY THE NUMBER OF VOLUMES IN A LIBRARY                         00670006
.*    DQUERY THE STATUS OF A TAPE DRIVE IN A LIBRARY                    00680006
.*    IQUERY AN INVENTORY LIST OF A LIBRARY                             00690006
.*    LQUERY THE OPERATIONAL STATE OF A LIBRARY                         00700006
.*    SETVCAT A NEW CATEGORY TO A VOLUME                                00710006
.*    MINVENT MANAGES AN INVENTORY LIST OF A LIBRARY                    00720006
.*    EXPORT FILES ON VTS                                               00721016
.*    IMPORT FILES ON VTS                                               00722016
.*                                                                      00730006
.*  THE CUU OPERAND PROVIDES THE ADDRESS OF THE CUU OF THE DEVICE       00740006
.*                                                                      00750006
.*  THE VOLSER OPERAND SPECIFIES THE 6 BYTES VOLUME SERIAL NUMBER       00760006
.*                                                                      00770006
.*  THE WRITE OPERAND SPECIFIES WHETHER THE MOUNT IS FOR                00780006
.*  READ WRITE (=YES) OR READ ONLY (=NO) 5.IF NOT SPECIFIED THEN        00790006
.*  WRITE=NO IS ASSUMED.                                                00800006
.*                                                                      00810006
.*  THE ECB OPERAND SPECIFIES THE ADDRESS OF THE ECB TO BE POSTED AFTER 00820006
.*  MOUNT, QUERY, RELEASE OR CANCEL.                                    00830006
.*                                                                      00840006
.*  THE SERVL OPERAND SPECIFIES THE ADDRESS OF AN AREA, WHERE RETRUN    00850006
.*  INFORMATION FOR RECEIVE REQUESTS IS STORED                          00860006
.*                                                                      00870006
.*  THE LIBNAME OPERAND SPECIFIES THE 8 BYTE LIBRARY NAME               00880006
.*                                                                      00890006
.*  THE SRCCAT OPERAND SPECIFIES THE 10 BYTE SOURCE CATEGORY NAME       00900006
.*                                                                      00910006
.*  THE TGTCAT OPERAND SPECIFIES THE 10 BYTE TARGET CATEGORY NAME       00920006
.*                                                                      00930006
.*  THE MEMNAME OPERAND SPECIFIES THE 8 BYTE LIBR MEMBER NAME           00940006
.*                                                                      00950006
.*  THE LIST OPERAND SPECIFIES THE MAX 6 X 10 BYTES SERIAL NUMBERS OF   00951033
.*  THE VOLUMES TO BE EXPORTED/IMPORTED                                 00951133
.*                                                         @D68KDAK     00952016
.********************************************************************** 00960006
.*                                                                      00970006
&WREG1   SETA  0              WORK REGISTER = R0                        00980006
&RETREG  SETA  14             RETURN REGISTER = R14                     00990006
&BRREG   SETA  15             BRANCH REGISTER = R15                     01000006
&BASEREG SETA  1              SERVL BASE = R1                           01010006
&SAVREG  SETA  13             USER'S SAVE AREA = R13                    01020006
&TEMP1   SETC  '0'            TEMP REGISTER                             01030006
&TEMP2   SETC  '0'            TEMP REGISTER                             01040006
&TEMP3   SETC  '0'            TEMP REGISTER                             01050006
&TEMP4   SETC  '0'            TEMP REGISTER                             01060006
&TEMP5   SETC  '0'            TEMP REGISTER                             01070006
&TEMP6   SETC  '0'            TEMP REGISTER                             01080006
&TEMP7   SETC  '0'            TEMP REGISTER                             01090006
&TEMP8   SETC  '0'            TEMP REGISTER                             01100006
&TEMP9   SETC  '0'            TEMP REGISTER                             01110006
&TEMPA   SETC  '0'            TEMP REGISTER                             01111022
&ERROR   SETA  0              NO ERRORS                                 01120006
&L1      SETC  'LBSP&SYSNDX'  BRANCH TO IJJTLIB                         01130006
&L2      SETC  'LBSR&SYSNDX'  BRANCH OVER IJJTLIB                       01140006
.*                                                                      01150006
.* -------------------------------------------------------------------- 01160006
.*       M A C R O  L A B E L                                           01170006
.* -------------------------------------------------------------------- 01180006
.*                                                                      01190006
         AIF   ('&NAME' EQ '').NEXT                                     01200006
&NAME    DC    0H'0'                                                    01210006
.NEXT    ANOP                                                           01220006
.CHECK   AIF   ('&FUNC' EQ 'MOUNT').MOUNT                               01230006
         AIF   ('&FUNC' EQ 'AQUERY').AQUERY                             01240006
         AIF   ('&FUNC' EQ 'SQUERY').SQUERY                             01250006
         AIF   ('&FUNC' EQ 'RELEASE').RELEASE                           01260006
         AIF   ('&FUNC' EQ 'CANCEL').CANCEL                             01270006
         AIF   ('&FUNC' EQ 'RECEIVE').RECEIVE                           01280006
         AIF   ('&FUNC' EQ 'EJECT').EJECT                               01290006
         AIF   ('&FUNC' EQ 'CMOUNT').CMOUNT                             01300006
         AIF   ('&FUNC' EQ 'CQUERY').CQUERY                             01310006
         AIF   ('&FUNC' EQ 'DQUERY').DQUERY                             01320006
         AIF   ('&FUNC' EQ 'IQUERY').IQUERY                             01330006
         AIF   ('&FUNC' EQ 'LQUERY').LQUERY                             01340006
         AIF   ('&FUNC' EQ 'SETVCAT').SETVCAT                           01350006
         AIF   ('&FUNC' EQ 'MINVENT').MINVENT                           01360006
         AIF   ('&FUNC' EQ 'EXPORT').EXPORT                             01361016
         AIF   ('&FUNC' EQ 'IMPORT').IMPORT                             01362016
         MNOTE 8,'FUNC=&FUNC IS INVALID'                                01370006
&ERROR   SETA  &ERROR+8                                                 01380006
         AGO   .WRI0                                                    01390006
.*                                                                      01400006
.* -------------------------------------------------------------------- 01410006
.*       "EJECT"    P R O C E S S I N G                                 01420006
.* -------------------------------------------------------------------- 01430006
.*                                                                      01440006
.EJECT   ANOP                                                           01450006
&FCODE   SETC  'EV'                                                     01460006
&FCOD1   SETA  197                                                      01470006
&FCOD2   SETA  229                                                      01480006
         AGO   .WRI0                                                    01490006
.*                                                                      01500006
.* -------------------------------------------------------------------- 01510006
.*       "RECEIVE"  P R O C E S S I N G                                 01520006
.* -------------------------------------------------------------------- 01530006
.*                                                                      01540006
.RECEIVE ANOP                                                           01550006
&FCODE   SETC  'RE'                                                     01560006
&FCOD1   SETA  217                                                      01570006
&FCOD2   SETA  197                                                      01580006
         AGO   .WRI0                                                    01590006
.*                                                                      01600006
.* -------------------------------------------------------------------- 01610006
.*       "RELEASE"  P R O C E S S I N G                                 01620006
.* -------------------------------------------------------------------- 01630006
.*                                                                      01640006
.RELEASE ANOP                                                           01650006
&FCODE   SETC  'RD'                                                     01660006
&FCOD1   SETA  217                                                      01670006
&FCOD2   SETA  196                                                      01680006
         AGO   .WRI0                                                    01690006
.*                                                                      01700006
.* -------------------------------------------------------------------- 01710006
.*       "CANCEL"   P R O C E S S I N G                                 01720006
.* -------------------------------------------------------------------- 01730006
.*                                                                      01740006
.CANCEL  ANOP                                                           01750006
&FCODE   SETC  'CR'                                                     01760006
&FCOD1   SETA  195                                                      01770006
&FCOD2   SETA  217                                                      01780006
         AGO   .WRI0                                                    01790006
.*                                                                      01800006
.* -------------------------------------------------------------------- 01810006
.*       "SQUERY"    P R O C E S S I N G                                01820006
.* -------------------------------------------------------------------- 01830006
.*                                                                      01840006
.SQUERY  ANOP                                                           01850006
&FCODE   SETC  'QS'                                                     01860006
&FCOD1   SETA  216                                                      01870006
&FCOD2   SETA  226                                                      01880006
         AGO   .WRI0                                                    01890006
.*                                                                      01900006
.* -------------------------------------------------------------------- 01910006
.*       "AQUERY"    P R O C E S S I N G                                01920006
.* -------------------------------------------------------------------- 01930006
.*                                                                      01940006
.AQUERY  ANOP                                                           01950006
&FCODE   SETC  'QA'                                                     01960006
&FCOD1   SETA  216                                                      01970006
&FCOD2   SETA  193                                                      01980006
         AGO   .WRI0                                                    01990006
.*                                                                      02000006
.* -------------------------------------------------------------------- 02010006
.*       "MOUNT"    P R O C E S S I N G                                 02020006
.* -------------------------------------------------------------------- 02030006
.*                                                                      02040006
.MOUNT   ANOP                                                           02050006
&FCODE   SETC  'MV'                                                     02060006
&FCOD1   SETA  212                                                      02070006
&FCOD2   SETA  229                                                      02080006
         AGO   .WRI0                                                    02090006
.*                                                                      02100006
.* -------------------------------------------------------------------- 02110006
.*       "CMOUNT"    P R O C E S S I N G                                02120006
.* -------------------------------------------------------------------- 02130006
.*                                                                      02140006
.CMOUNT  ANOP                                                           02150006
&FCODE   SETC  'MC'                                                     02160006
&FCOD1   SETA  212                                                      02170006
&FCOD2   SETA  195                                                      02180006
         AGO   .WRI0                                                    02190006
.*                                                                      02200006
.* -------------------------------------------------------------------- 02210006
.*       "CQUERY"    P R O C E S S I N G                                02220006
.* -------------------------------------------------------------------- 02230006
.*                                                                      02240006
.CQUERY  ANOP                                                           02250006
&FCODE   SETC  'QC'                                                     02260006
&FCOD1   SETA  216                                                      02270006
&FCOD2   SETA  195                                                      02280006
         AGO   .WRI0                                                    02290006
.*                                                                      02300006
.* -------------------------------------------------------------------- 02310006
.*       "DQUERY"    P R O C E S S I N G                                02320006
.* -------------------------------------------------------------------- 02330006
.*                                                                      02340006
.DQUERY  ANOP                                                           02350006
&FCODE   SETC  'QD'                                                     02360006
&FCOD1   SETA  216                                                      02370006
&FCOD2   SETA  196                                                      02380006
         AGO   .WRI0                                                    02390006
.*                                                                      02400006
.* -------------------------------------------------------------------- 02410006
.*       "IQUERY"    P R O C E S S I N G                                02420006
.* -------------------------------------------------------------------- 02430006
.*                                                                      02440006
.LQUERY  ANOP                                                           02450006
&FCODE   SETC  'QL'                                                     02460006
&FCOD1   SETA  216                                                      02470006
&FCOD2   SETA  211                                                      02480006
         AGO   .WRI0                                                    02490006
.*                                                                      02500006
.* -------------------------------------------------------------------- 02510006
.*       "LQUERY"    P R O C E S S I N G                                02520006
.* -------------------------------------------------------------------- 02530006
.*                                                                      02540006
.IQUERY  ANOP                                                           02550006
&FCODE   SETC  'QI'                                                     02560006
&FCOD1   SETA  216                                                      02570006
&FCOD2   SETA  201                                                      02580006
         AGO   .WRI0                                                    02590006
.*                                                                      02600006
.* -------------------------------------------------------------------- 02610006
.*       "SETVCAT"    P R O C E S S I N G                               02620006
.* -------------------------------------------------------------------- 02630006
.*                                                                      02640006
.SETVCAT ANOP                                                           02650006
&FCODE   SETC  'SV'                                                     02660006
&FCOD1   SETA  226                                                      02670006
&FCOD2   SETA  229                                                      02680006
         AGO   .WRI0                                                    02690006
.*                                                                      02700006
.* -------------------------------------------------------------------- 02710006
.*       "MINVENT"    P R O C E S S I N G                               02720006
.* -------------------------------------------------------------------- 02730006
.*                                                                      02740006
.MINVENT ANOP                                                           02750006
&FCODE   SETC  'MI'                                                     02760006
&FCOD1   SETA  212                                                      02770006
&FCOD2   SETA  201                                                      02780006
         AGO   .WRI0                                                    02790006
.*                                                                      02791017
.* -------------------------------------------------------------------- 02792017
.*       "EXPORT "    P R O C E S S I N G                     @D68KDAK  02793017
.* -------------------------------------------------------------------- 02794017
.*                                                                      02795017
.EXPORT  ANOP                                                           02796017
&FCODE   SETC  'EX'                                                     02797017
&FCOD1   SETA  197                                                      02798017
&FCOD2   SETA  231                                                      02799017
         AGO   .WRI0                                                    02799117
.*                                                                      02799217
.* -------------------------------------------------------------------- 02799317
.*       "IMPORT "    P R O C E S S I N G                     @D68KDAK  02799417
.* -------------------------------------------------------------------- 02799517
.*                                                                      02799617
.IMPORT  ANOP                                                           02799717
&FCODE   SETC  'IM'                                                     02799817
&FCOD1   SETA  201                                                      02799917
&FCOD2   SETA  212                                                      02800017
         AGO   .WRI0                                                    02800117
.*                                                                      02801006
.* -------------------------------------------------------------------- 02810006
.*       C H E C K   P A R A M E T E R S                                02820006
.* -------------------------------------------------------------------- 02830006
.*                                                                      02840006
.* WRITE PARAMETER ---------------------------------------------------- 02850006
.WRI0    AIF   ('&FCODE' EQ 'MV').WRI2                                  02860006
         AIF   ('&FCODE' EQ 'MC').WRI2                                  02870006
         AIF   ('&WRITE' EQ '').CUU0                                    02880006
         MNOTE 4,'WRITE PARAMETER IGNORED'                              02890006
         AGO   .CUU0                                                    02900006
.WRI2    AIF   ('&WRITE' NE '').WRI4                                    02910006
         MNOTE 8,'WRITE PARAMETER IS MISSING'                           02920006
&ERROR   SETA  &ERROR+8                                                 02930006
         AGO   .CUU0                                                    02940006
.WRI4    AIF   ('&WRITE'(1,1) NE '(').CUU0                              02950006
         AIF   ('&WRITE'(K'&WRITE,1) EQ ')').WRI5                       02960006
         MNOTE 8,'&WRITE WRONG REGISTER NOTATION'                       02970006
&ERROR   SETA  &ERROR+8                                                 02980006
         AGO   .CUU0                                                    02990006
.WRI5    ANOP                                                           03000006
&TEMP6   SETC  '&WRITE'(2,K'&WRITE-2)                                   03010006
.* CUU PARAMETER ------------------------------------------------------ 03020006
.CUU0    AIF   ('&FCODE' EQ 'MV').CUU2                                  03030006
         AIF   ('&FCODE' EQ 'RD').CUU2                                  03040006
         AIF   ('&FCODE' EQ 'MC').CUU2                                  03050006
         AIF   ('&FCODE' EQ 'QD').CUU2                                  03060006
         AIF   ('&FCODE' EQ 'QS').CUU3                                  03070006
         AIF   ('&FCODE' EQ 'EX').CUU2                        @D68DDAK  03071030
         AIF   ('&FCODE' EQ 'IM').CUU2                        @D68DDAK  03072030
         AIF   ('&CUU' EQ '').LIB0                                      03080006
         MNOTE 4,'CUU PARAMETER IGNORED'                                03090006
         AGO   .LIB0                                                    03100006
.CUU2    AIF   ('&CUU' NE '').CUU4                                      03110006
         MNOTE 8,'CUU PARAMETER IS MISSING'                             03120006
&ERROR   SETA  &ERROR+8                                                 03130006
         AGO   .LIB0                                                    03140006
.CUU3    AIF   ('&CUU' EQ '').LIB0                                      03150006
.CUU4    AIF   ('&CUU'(1,1) NE '(').LIB0                                03160006
         AIF   ('&CUU'(K'&CUU,1) EQ ')').CUU5                           03170006
         MNOTE 8,'&CUU WRONG REGISTER NOTATION'                         03180006
&ERROR   SETA  &ERROR+8                                                 03190006
         AGO   .LIB0                                                    03200006
.CUU5    ANOP                                                           03210006
&TEMP2   SETC  '&CUU'(2,K'&CUU-2)                                       03220006
.* LIBNAME PARAMETER -------------------------------------------------- 03230006
.LIB0    AIF   ('&FCODE' EQ 'QS').LIB2                                  03240006
         AIF   ('&FCODE' EQ 'QA').LIB2                                  03250006
         AIF   ('&FCODE' EQ 'MV').LIB2                                  03260006
         AIF   ('&FCODE' EQ 'EV').LIB2                                  03270006
         AIF   ('&FCODE' EQ 'MC').LIB2                                  03280006
         AIF   ('&FCODE' EQ 'QC').LIB2                                  03290006
         AIF   ('&FCODE' EQ 'QI').LIB2                                  03300006
         AIF   ('&FCODE' EQ 'QL').LIB2                                  03310006
         AIF   ('&FCODE' EQ 'SV').LIB2                                  03320006
         AIF   ('&FCODE' EQ 'MI').LIB2                                  03330006
         AIF   ('&LIBNAME' EQ '').VOL0                                  03340006
         MNOTE 4,'LIBNAME PARAMETER IGNORED'                            03350006
         AGO   .VOL0                                                    03360006
.LIB2    AIF   ('&LIBNAME' NE '').LIB4                                  03370006