         MACRO                                                          00050000
&NAME    LOCK  ,&FAIL=                                                  00100000
         LCLA  &RPARM,&RDTL   PARAMETER REGISTERS                       00150000
         LCLA  &SVC           SVC NUMBER                                00200000
         LCLA  &FLAGS         WORKFIELD FOR FLAG BYTES                  00250000
         LCLC  &ADDR          WORK FIELD FOR POSITIONAL OPERAND         00300000
         LCLA  &TYPE          A-TYPE/S-TYPE OR REGISTER TYPE            00350000
         LCLA  &WAITUFL       FAIL=RETURN                               00400000
         LCLA  &WAITCFL       FAIL=WAITC                                00450000
         LCLA  &WAITEFL       FAIL=WAITECB                              00475052
         LCLA  &LOCKFLG       LOCK SVC                                  00500000
.*                                                                      00550000
         AGO   .ZZZ                                                     00600000
*********************************************************************** 00650000
*                                                                     * 00700000
*        THIS MACRO IS "RESTRICTED MATERIALS OF IBM"                  * 00750000
*        5686-007 (C) COPYRIGHT IBM CORP. 1979,1988                   * 00800000
*        ALL RIGHTS RESERVED                                          * 00850000
*        LICENSED MATERIALS - PROGRAM PROPERTY OF IBM                 * 00900000
.*       SEE COPYRIGHT INSTRUCTIONS, G120-2083                        * 00950000
*                                                                     * 01000000
*********************************************************************** 01050000
.ZZZ ANOP                                                               01100000
.*-------------------------------------------------------------         01150000
.* /* START OF SPECIFICATIONS *********************************         01200000
.*01* MODULE TYPE = USER INTERFACE MACRO                                01250000
.*                                                                      01300000
.*01* DESCRIPTIVE NAME = RESOURCE REQUEST MACRO.                        01350000
.*                                                                      01400000
.*01* NOTES = CHANGE ACTIVITY                                           01450000
.*    NEW MODULE - FIRST RELEASE  35                                    01500000
.*    CHANGES MADE FOR DASD SHARING                            @D36SDJO 01550000
.* A000000-999999                                              @D356DJO 01600000
.*                                                                      01650000
.**************************************************************         01700000
.*                                                                      01750000
.*  THIS MACRO IS USED FOR RESOURCE PROTECTION.                         01800000
.*  IT PROTECTS RESOURCES REPRESENTED BY A LOCK CONTROL BLOCK(DTL).     01850000
.*                                                                      01900000
.* ARGUMENT LIST DESCRIPTION:                                           01950000
.*                                                                      02000000
.*  ONE POSITIONAL OPERAND MAY BE SPECIFIED.                            02050000
.*  IT PROVIDES THE ADDRESS OF A DTL (DEFINE THE LOCK).                 02100000
.*  THE ADDRESS OF THE DTL MAY BE SPECIFIED IN A-TYPE                   02150000
.*  OR S-TYPE FORMAT OR IN REGISTER FORMAT.                             02200000
.*                                                                      02250000
.*  THE TERM A-TYPE FORMAT MEANS A NAME OR AN ADDRESS                   02300000
.*  EXPRESSION EXPANDING IN AN A-TYPE ADDRESS CONSTANT.                 02350000
.*  THE TERM S-TYPE FORMAT MEANS A NAME OR AN ADDRESS                   02400000
.*  EXPRESSION WHICH COULD BE EXPANDED IN AN S-TYPE                     02450000
.*  ADDRESS CONSTANT. IT WILL BE USED AS OPERAND OF AN                  02500000
.*  INSTRUCTION IN BASE REGISTER,DISPLACEMENT FORMAT.                   02550000
.*  IT IS TO BE WRITTEN AS (S,ADDRESS EXPRESSION).                      02600000
.*  THE REGISTER NOTATION IS A REGISTER NUMBER OR AN                    02650000
.*  APPROPRIATELY EQUATED SYMBOL ENCLOSED IN PARENTHESES.               02700000
.*                                                                      02750000
.*  THE FAIL OPTION MAY HAVE FOUR VALUES:                               02800052
.*  FAIL=WAIT, FAIL=WAITC, FAIL=RETURN AND FAIL=WAITECB.                02850052
.*  THE DEFAULT IS 'FAIL=WAIT',HOWEVER,A WARNING MNOTE IS GIVEN         02900000
.*  WHEN THE DEFAULT VALUE HAS BEEN CHOSEN.                             02950000
.*                                                                      03000000
.*  SUPERVISOR ACTIONS ON THE FAIL OPTION:                              03050000
.*                                                                      03100000
.*             |   FAIL= WAIT  |   WAITC   |   RETURN                   03150000
.*  ----------------------------------------------------------          03200000
.*  R.C.= 0    |    RETURN     |   RETURN  |   RETURN                   03250000
.*      = 4    |    WAIT       |   WAIT    |   RETURN                   03300000
.*      = 8    |    WAIT       |   RETURN  |   RETURN                   03350000
.*      =12    |    CANCEL     |   RETURN  |   RETURN                   03400000
.*      =16    |    CANCEL     |   RETURN  |   RETURN                   03450000
.*      =20    |    CANCEL     |   RETURN  |   RETURN                   03500000
.*      =24    |    CANCEL     |   RETURN  |   RETURN                   03550000
.*      =28    |    WAIT       |   RETURN  |   RETURN                   03600000
.*      =32    |    CANCEL     |   RETURN  |   RETURN                   03650000
.*      =36    |    CANCEL     |   RETURN  |   RETURN                   03700000
.*                                                                      03750000
.********************************************************************** 03800000
.*                                                                      03850000
&SVC     SETA  110            SVC NUMBER                                03900000
&RPARM   SETA  0              NUMBER OF PARAMETER REG                   03950000
&RDTL    SETA  1              NUMBER OF DTL ADDRESS  REGISTER           04000000
&LOCKFLG SETA  3   '          IDENTIFICATION FOR LOCK SVC.              04050000
&WAITUFL SETA  4              B'1' IF FAIL=WAIT                         04100000
&WAITCFL SETA  8              B'1' IF FAIL=WAITC                        04150000
&WAITEFL SETA  X'80'          B'1' IF FAIL=WAITECB                      04175052
.*                                                                      04200000
.* -------------------------------------------------------------------- 04250000
.*       M A C R O  L A B E L                                           04300000
.* -------------------------------------------------------------------- 04350000
.*                                                                      04400000
         AIF   ('&NAME' EQ '').NEXT                                     04450000
&NAME    DC    0H'0'                                                    04500000
.NEXT    ANOP                                                           04550000
.*                                                                      04600000
.* -------------------------------------------------------------------- 04650000
.*       I N I T I A L I S A T I O N                                    04700000
.* -------------------------------------------------------------------- 04750000
.*                                                                      04800000
.*   PROVIDE A FLAG BIT TO SHOW THAT THIS SVC IS A LOCK SVC.            04850000
&FLAGS    SETA  &LOCKFLG                                                04900000
.*                                                                      04950000
.* -------------------------------------------------------------------- 05000000
.*       C H E C K  N U M B E R  O F  O P E R A N D S                   05050000
.* -------------------------------------------------------------------- 05100000
.*                                                                      05150000
         AIF   (N'&SYSLIST EQ 0).EMPTY                                  05200000
         AIF   (N'&SYSLIST EQ 1).SPEC1                                  05250000
 MNOTE 8,'MORE THAN ONE POSITIONAL OPERAND, GENERATION SUPPRESSED.'     05300000
         SPACE 2                                                        05350000
         MEXIT                                                          05400000
.EMPTY   ANOP                                                           05450000
 MNOTE 8,'NO VALID POSITIONAL OPERAND SPECIFIED,GENERATION SUPPRESSED.' 05500000
         SPACE 2                                                        05550000
         MEXIT                                                          05600000
.*                                                                      05650000
.* -------------------------------------------------------------------- 05700000
.*       C H E C K   ' F A I L '  O P E R A N D                         05750000
.* -------------------------------------------------------------------- 05800000
.*                                                                      05850000
.SPEC1   ANOP                                                           05900000
         AIF   ('&FAIL' NE 'WAIT').FAIL1                                05950000
&FLAGS   SETA  &FLAGS+&WAITUFL                                          06000000
         AGO   .FAILEND                                                 06050000
.FAIL1   ANOP                                                           06100000
         AIF   ('&FAIL' NE 'WAITC').FAIL2                               06150000
&FLAGS   SETA  &FLAGS+&WAITCFL                                          06200000
         AGO   .FAILEND                                                 06250000
.FAIL2   ANOP                                                           06300000
         AIF   ('&FAIL' NE 'WAITECB').FAIL3                             06310052
&FLAGS   SETA  &FLAGS+&WAITEFL                                          06320052
         AGO   .FAILEND                                                 06330052
.FAIL3   ANOP                                                           06340052
         AIF   ('&FAIL' EQ 'RETURN').FAILEND                            06350000
         MNOTE 1,'''FAIL'' SPECIFICATION MISSING OR INVALID, ''FAIL =  *06400000
               RETURN'' ASSUMED.'                                       06450000
.FAILEND ANOP                                                           06500000
.*                                                                      06550000
.* -------------------------------------------------------------------- 06600000
.*       C H E C K  P O S I T I O N A L  O P E R A N D .                06650000
.* -------------------------------------------------------------------- 06700000
.*                                                                      06750000
         AIF   ('&SYSLIST(1)'(1,1) EQ '(').PAREN                        06800000
.*       SYMBOL OF NAME FIELD SPECIFIED                                 06850000
&ADDR    SETC  '&SYSLIST(1)'                                            06900000
         AGO   .GEN1                                                    06950000
.PAREN   AIF   ('&SYSLIST(1)'(1,3) EQ '(S,').STYPE                      07000000
         AIF   ('&SYSLIST(1)'(K'&SYSLIST(1),1) EQ ')').REGTYPE          07050000
 MNOTE 8,'INVALID POSITIONAL OPERAND. GENERATION SUPPRESSED.'           07100000
         SPACE 2                                                        07150000
         MEXIT                                                          07200000
.REGTYPE ANOP                                                           07250000
&ADDR    SETC  '&SYSLIST(1,1)'                                          07300000
         AGO   .GEN4                                                    07350000
.STYPE   ANOP                                                           07400000
&ADDR    SETC  '&SYSLIST(1)'(4,K'&SYSLIST(1)-4)                         07450000
.*                                                                      07500000
.* -------------------------------------------------------------------- 07550000
.*       G E N E R A T E   A S S E M B L E R   C O D E .                07600000
.* -------------------------------------------------------------------- 07650000
.*                                                                      07700000
         LA    &RDTL,&ADDR        S-TYPE ADDRESS                        07750000
         AGO   .GEN3                                                    07800000
.GEN1    ANOP                     A-TYPE ADDRESS                        07850000
         L     &RDTL,=A(&ADDR)     DTL ADDRESS                          07900000
.GEN3    LA    &RPARM,&FLAGS.(,0)  LOCK PARAMETERS                      07950000
         SVC   &SVC                LOCK THE RESOURCE                    08000000
         SPACE 1                                                        08050000
         MEXIT                                                          08100000
.GEN4    ANOP                      REGISTER OPERAND                     08150000
         AIF   ('&ADDR' EQ '1').GEN3                                    08200000
         LR    &RDTL,&ADDR                                              08250000
         AGO   .GEN3                                                    08300000
         MEND                                                           08350000
