*/***********************************************************/          00000106
*/*      IBM DISK OPERATING SYSTEM                          */          00000206
*/*      JOB CONTROL - LPLDCT - 5686-CF7-06-81C    @D68KDFM */          00000316
*/*                                                         */          00000406
*/*      THIS MACRO IS "RESTRICTED MATERIALS OF IBM"        */          00000506
*/*      ALL RIGHTS RESERVED                                */          00000606
*/*      5686-CF7 COPYRIGHT IBM CORP 1977,2004     @D68KDFM */          00000716
*/*      LICENSED MATERIALS-PROPERTY OF IBM                 */          00000806
*/*      SEE COPYRIGHT INSTRUCTIONS, G120-2083              */          00000906
*/*                                                         */          00001006
*/***********************************************************/          00001106
*%GOTO PLSLPL;                       /* ASSEMBLER MACRO IN COMMENT      00001206
         MACRO                                                          00001306
&NAME    LPLDCT                                                         00001406
.* MACRO NAME: LPLDCT                                                   00001506
.*                                                                      00001606
.* DESCRIPTIVE NAME: MAPPING MACRO FOR LABEL PARAMETER LIST (LPL)       00001706
.*                                                                      00001806
.*                                                                      00001906
.* FUNCTION:                                                            00002006
.*     BY CALLING LPLDCT A DUMMY SECTION IS CREATED WHICH               00002106
.*     CORRESP. FIELD BY FIELD TO THE AREA CREATED BY AN LPL MACRO      00002206
.*     (LABEL PARAMETER LIST: INTERFACE TO SYMBOLIC LABEL ACCESS).      00002306
.*     THIS MACRO PROVIDES A BILANGUAL MAPPING FOR PLS/2 AND ASSEM.     00002406
.*                                                                      00002506
.* DEPENDENCIES: DECLARATIONS OF LPL MACRO                              00002606
.*                                                                      00002706
.* RESRICTIONS: NONE                                                    00002806
.*                                                                      00002906
.* INPUT (FOR PLS ONLY):                                                00003006
.*     - LEVEL NUMBER OF DECLARATION (OPTIONAL)                         00003106
.*     - DELIMITER OF DECLARATION (OPTIONAL)                            00003206
.*                                                                      00003306
.* OUTPUT: DECLARATIONS OF DUMMY SECTION IN ASSEMBLER RESP. PL/X        00003411
.*                                                                      00003506
.* CHANGE ACTIVITY:                                                     00003606
.*    @D51IDHB MORE THAN 12 PARTITIONS                         @D51IDHB 00003706
.*    @D52VDHH SUPPORT FOR 31-BIT ADDRESSING                   @D52VDHH 00003806
.*    MAPPING OF LABEL AREA CAPACITY INFORMATION               @D65BDFM 00003908
.*    INSERT FUNCTION CODE FOR NEW DELLBL FUNCTION (US.4)      @D66JDFM 00004008
.*    INSERT FUNCTION CODE FOR NEW QRYGRPL FUNCTION            @D67EDFM 00004110
.*    INSERT FUNCTION CODE FOR NEW GETLBLID FUNCTION           @D68KDFM 00004213
.*    INSERT FUNCTION CODE FOR NEW GETLBLIC FUNCTION           @D68KDFM 00004313
.* A000000-999999                                              @D35DDWH 00004412
.********************************************************************** 00004512
         DS    0F             GO TO WORD BOUNDARY                       00004612
LPLDCT   DSECT                                                          00004712
LPLAREA  DS    F              ADDRESS OF BUFFER                         00004812
LPLBFLEN DS    H              LENGTH OF BUFFER                          00004912
LPLLBLEN DS    H              LENGTH OF LABEL                           00005012
LPLNAM   DS    CL8            FILE NAME                                 00005112
LPLGRP   DS    0X             GROUP OF LABELS                           00005212
LPLPNUM  DS    X              PARTITION NUMBER                          00005312
LPLSYS   EQU   X'FF'          1. BYTE OF LPLGRP IF SYSTEM LABELS        00005412
LPLPART  EQU   X'00'          1. BYTE OF LPLGRP IF PART. LABELS         00005512
         DS    X              RESERVED                                  00005612
LPLSTORE DS    X              OPTION CODE                               00005712
LPLTEMP  EQU   0              OPTION CODE FOR TEMPORARY LABELS          00005812
LPLPERM  EQU   1              OPTION CODE FOR PERMANENT LABELS          00005912
LPLFREE  EQU   2              OPTION CODE FOR FREE USAGE LABELS         00006012
LPLDEL   EQU   3              OPTION CODE TO DELETE LABELS     @D36HDWS 00006112
LPLCLASS EQU   4              OPTION CODE FOR CLASS LABELS     @D51IDHB 00006212
LPLCLDEL EQU   5              OPTION CODE FOR DELETE CLASS LBLS@D51IDHB 00006312
LPLINDIC DS    X              INDICATORS IN LPL                         00006412
LPLSQNO  EQU   0              NO CHECKING OF EXTENT SEQUENCE NUMBER     00006512
LPLSQCHK EQU   1              CHECKING OF EXTENT SEQUENCE NUMBER        00006612
LPLGETNP EQU   2              GETLBL/GETNXLB PARALLEL          @D14BDWS 00006712
LPLSEQNM DS    X              EXTENT SEQUENCE NUMBER                    00006812
.********************************************************************** 00006912
.*****        FUNCTION CODES                                      ***** 00007012
.********************************************************************** 00007112
LPLGETLB EQU   X'01'          FUNCTION CODE FOR GETLBL         @D36HDWS 00007212
LPLGETNL EQU   X'02'          FUNCTION CODE FOR GETNXL         @D36HDWS 00007312
LPLREPLB EQU   X'03'          FUNCTION CODE FOR REPLBL         @D36HDWS 00007412
LPLADDLB EQU   X'04'          FUNCTION CODE FOR ADDLBL         @D36HDWS 00007512
LPLADDNL EQU   X'05'          FUNCTION CODE FOR ADDNXL         @D36HDWS 00007612
LPLCLRGL EQU   X'06'          FUNCTION CODE FOR CLRGRPL        @D36HDWS 00007712
LPLENDLB EQU   X'07'          FUNCTION CODE FOR ENDLBL         @D36HDWS 00007812
LPLLOCGL EQU   X'08'          FUNCTION CODE FOR LOCGRPL        @D36HDWS 00007912
LPLGETNG EQU   X'09'          FUNCTION CODE FOR GETNXGL        @D36HDWS 00008012
LPLMODGL EQU   X'10'          FUNCTION CODE FOR MODGRPL        @D36HDWS 00008112
LPLSRCLB EQU   X'11'          FUNCTION CODE FOR SRCLBL         @D37DDWS 00008212
LPLCPCLB EQU   X'12'          FUNCTION CODE FOR CPCTYLBL       @D66JDFM 00008312
LPLDELLB EQU   X'13'          FUNCTION CODE FOR DELLBL         @D66JDFM 00008412
LPLQRYGL EQU   X'14'          FUNCTION CODE FOR QRYGRPL        @D67EDFM 00008512
LPLGETID EQU   X'15'          FUNCTION CODE FOR GETLBLID       @D68KDFM 00008613
LPLGETIC EQU   X'16'          FUNCTION CODE FOR GETLBLIC       @D68KDFM 00008713
.********************************************************************** 00008812
.*****        RETURN CODES                                        ***** 00008912
.********************************************************************** 00009012
LPLSUCC  EQU   X'00'          SUCCESSFULL REQUEST              @D36HDWS 00009112
LPLNOINF EQU   X'04'          LABEL DOES NOT EXIST             @D36HDWS 00009212
LPLBUFLG EQU   X'08'          BUFFER LENGTH TOO SMALL          @D36HDWS 00009312
LPLETSSL EQU   X'0A'          ONLY USED BY ETSS:WRONG LENGTH   @D36HDWS 00009412
LPLCDLDF EQU   X'0B'          ONLY USED BY ETSS:CDLOAD NOT OK  @D36HDWS 00009512
LPLWRSEQ EQU   X'0C'          WRONG SEQUENCE OF MACROS         @D36HDWS 00009612
LPLDASGN EQU   X'0D'          DYN.ASSIGN DID NOT WORK          @D36HDWS 00009712
LPLGETVC EQU   X'0E'          GETVCE DID NOT WORK              @D51IDHB 00009812
LPLINVAL EQU   X'14'          CONTENTS OF LPL INVALID          @D36HDWS 00009912
LPLSPACE EQU   X'18'          NO SPACE IN LABEL AREA           @D36HDWS 00010012
LPLGETVS EQU   X'1C'          NO GETVIS SPACE AVAILABLE        @D36HDWS 00010112
LPLPRGSS EQU   X'20'          LABEL SUBAREA IN PROGRESS        @D36HDWS 00010212
LPLWREXT EQU   X'24'          WRONG EXTENT SEQUENCE NUMBER     @D36HDWS 00010312
LPLSLBFD EQU   X'28'          SAME LABEL FOUND IN SUBAREA      @D37DDWS 00010412
LPLFCINV EQU   X'63'          LABEL FUNCTION CODE IS INVALID   @D52VDHH 00010512
LPLLEN   EQU   *-LPLDCT       OBTAIN LENGTH OF LPL                      00010612
LPLCPCTY DSECT                MAPPING OF CAPACITY INFORMATION  @D65BDFM 00010712
LPLNLASA DS    H              NUMBER OF LAS'S AVAILABLE        @D65BDFM 00010812
LPLNLASU DS    H              NUMBER OF LAS'S CURRENTLY IN USE @D65BDFM 00010912
LPLNLASM DS    H              HIGHWATERMARK: MAX NUMBER IN USE @D65BDFM 00011012
         MEND                 */                                        00011112
*%PLSLPL:;                                                              00011212
*      %IF LPLEND¬=','            /* IF THIS IS LAST BLOCK           */ 00011312
*         %THEN %LPLEND=';';      /*   THEN CLOSE DCL STM.           */ 00011412
*      %IF LPLLEVEL¬=''           /* IF THIS IS CONCATENATED         */ 00011512
*         %THEN %GOTO LPLDCL1;    /*   SKIP DECLARE STM.             */ 00011612
*      DCL 1 LPLDCT BASED         /* DECLARE DSECT LEVEL ONE         */ 00011712
*      %GOTO LPLDCL2;                                                   00011812
* %LPLDCL1:                                                             00011912
*      LPLDUM=LPLLEVEL||' LPLDCT';/* SET LEVEL FOR MINOR STRUCTURE   */ 00012012
*         LPLDUM                  /* MINOR STRUCTURE NAME PARM       */ 00012112
* %LPLDCL2:;                                                            00012212
*         BDY(WORD),                                                    00012312
*           5 LPLAREA  PTR(31),   /* ADDRESS OF BUFFER               */ 00012412
*           5 LPLBFLEN BIT(16),   /* LENGTH OF BUFFER                */ 00012512
*           5 LPLLBLEN BIT(16),   /* LENGTH OF LABEL                 */ 00012612
*           5 LPLNAM   CHAR(8),   /* FILE NAME PLUS INT. SEQ. NUMBER */ 00012712
*             10 LPLKEY CHAR(7),  /* FILE NAME                       */ 00012812
*           5 LPLGRP   BIT(16),   /* GROUP OF LABELS                 */ 00012912
*             10 LPLPNUM BIT(8),  /* PARTITION IDENTIFICATION        */ 00013012
*           5 LPLSTORE BIT(8),    /* OPTION CODE                     */ 00013112
*           5 LPLINDIC BIT(8),    /* INDICATORS IN LPL               */ 00013212
*           5 LPLSEQNM BIT(8)     /* EXTENT SEQUENCE NUMBER          */ 00013312
*                         LPLEND  /* TERMINATING SIGN                */ 00013412
*/********************************************************************/ 00013512
*/****        FUNCTION CODES                                      ****/ 00013612
*/********************************************************************/ 00013712
* DCL                                  /*                    @D36HDWS*/ 00013812
* LPLGETLB BIT(8) CONSTANT('01'X),     /*   GETLBL           @D36HDWS*/ 00013912
* LPLGETNL BIT(8) CONSTANT('02'X),     /*   GETNXL           @D36HDWS*/ 00014012
* LPLREPLB BIT(8) CONSTANT('03'X),     /*   REPLBL           @D36HDWS*/ 00014112
* LPLADDLB BIT(8) CONSTANT('04'X),     /*   ADDLBL           @D36HDWS*/ 00014212
* LPLADDNL BIT(8) CONSTANT('05'X),     /*   ADDNXL           @D36HDWS*/ 00014312
* LPLCLRGL BIT(8) CONSTANT('06'X),     /*   CLRGRPL          @D36HDWS*/ 00014412
* LPLENDLB BIT(8) CONSTANT('07'X),     /*   ENDLBL           @D36HDWS*/ 00014512
* LPLLOCGL BIT(8) CONSTANT('08'X),     /*   LOCGRPL          @D36HDWS*/ 00014612
* LPLGETNG BIT(8) CONSTANT('09'X),     /*   GETNXGL          @D36HDWS*/ 00014712
* LPLMODGL BIT(8) CONSTANT('10'X),     /*   MODGRPL          @D36HDWS*/ 00014812
* LPLSRCLB BIT(8) CONSTANT('11'X),     /*   SRCLBL           @D37DDWS*/ 00014912
* LPLCPCLB BIT(8) CONSTANT('12'X),     /*   CPCTYLBL         @D66JDFM*/ 00015012
* LPLDELLB BIT(8) CONSTANT('13'X),     /*   DELLBL           @D66JDFM*/ 00015112
* LPLQRYGL BIT(8) CONSTANT('14'X),     /*   QRYGRPL          @D67EDFM*/ 00015212
* LPLGETID BIT(8) CONSTANT('15'X),     /*   GETLBLID         @D68KDFM*/ 00015313
* LPLGETIC BIT(8) CONSTANT('16'X);     /*   GETLBLIC         @D68KDFM*/ 00015413
*/* POSSIBLE VALUES IN THE FIELD LPLGRP                      @D51IDHB*/ 00015612
* DCL                                  /*                    @D51IDHB*/ 00015712
* LPLSYS   BIT(8) CONSTANT('FF'X),     /*   FOR SYSTEM LABELS@D51IDHB*/ 00015812
* LPLPART  BIT(8) CONSTANT('00'X);     /*   FOR PARTI. LABELS@D51IDHB*/ 00015912
*/* POSSIBLE VALUES IN THE FIELD LPLSTORE                    @D51IDHB*/ 00016012
* DCL                                  /*                    @D51IDHB*/ 00016112
* LPLTEMP  BIT(8) CONSTANT('00'X),     /* FOR TEMP. LABELS   @D51IDHB*/ 00016212
* LPLPERM  BIT(8) CONSTANT('01'X),     /* FOR PERM. LABELS   @D51IDHB*/ 00016312
* LPLFREE  BIT(8) CONSTANT('02'X),     /* FOR FREE US LABELS @D51IDHB*/ 00016412
* LPLDEL   BIT(8) CONSTANT('03'X),     /* FOR DELETE LABELS  @D51IDHB*/ 00016512
* LPLCLASS BIT(8) CONSTANT('04'X),     /* FOR CLASS  LABELS  @D51IDHB*/ 00016612
* LPLCLDEL BIT(8) CONSTANT('05'X);     /* FOR DELETE CLS LBLS@D51IDHB*/ 00016712
*/* POSSIBLE VALUES IN THE FIELD LPLINDIC                    @D51IDHB*/ 00016812
* DCL                                  /*                    @D51IDHB*/ 00016912
* LPLSQNO  BIT(8) CONSTANT('00'X),     /* NO CHECK OF SEQ.NO.@D51IDHB*/ 00017012
* LPLSQCHK BIT(8) CONSTANT('01'X),     /* CHECK OF SEQ.NO.   @D51IDHB*/ 00017112
* LPLGETNP BIT(8) CONSTANT('02'X);     /* GETLBL/GETNXL PARAL@D51IDHB*/ 00017212
*/********************************************************************/ 00017312
*/****        RETURN CODES                                        ****/ 00017412
*/********************************************************************/ 00017512
* DCL                                                                   00017612
* LPLSUCC  BIT(8) CONSTANT('00'X), /* SUCCESSFULL REQUEST    @D36HDWS*/ 00017712
* LPLNOINF BIT(8) CONSTANT('04'X), /* LABEL DOES NOT EXIST   @D36HDWS*/ 00017812
* LPLBUFLG BIT(8) CONSTANT('08'X), /* BUFFER LGTH TOO SMALL  @D36HDWS*/ 00017912
* LPLETSSL BIT(8) CONSTANT('0A'X), /* ONLY ETSS:WRONG LGTH   @D36HDWS*/ 00018012
* LPLCDLDF BIT(8) CONSTANT('0B'X), /* ONLY ETSS:CDLOAD ¬OK   @D36HDWS*/ 00018112
* LPLWRSEQ BIT(8) CONSTANT('0C'X), /* WRONG SEQ.OF MACROS    @D36HDWS*/ 00018212
* LPLDASGN BIT(8) CONSTANT('0D'X), /* DYN.ASSIGN NOT OK      @D36HDWS*/ 00018312
* LPLGETVC BIT(8) CONSTANT('0E'X), /* GETVCE DID NOT WORK    @D51IDHB*/ 00018412
* LPLINVLD BIT(8) CONSTANT('14'X), /* CONTENTS OF LPL INV.   @D36HDWS*/ 00018512
* LPLINVAL BIT(8) CONSTANT('14'X), /* CONTENTS OF LPL INV.   @D51IDHB*/ 00018612
* LPLSPACE BIT(8) CONSTANT('18'X), /* NO SPACE IN LABEL AREA @D36HDWS*/ 00018712
* LPLGETVS BIT(8) CONSTANT('1C'X), /* NO GETVIS SPACE AVAIL. @D36HDWS*/ 00018812
* LPLPRGSS BIT(8) CONSTANT('20'X), /* LABEL SUBAREA IN PROG. @D36HDWS*/ 00018912
* LPLWGEXT BIT(8) CONSTANT('24'X), /* WRONG EXT.SEQ. NUMBER  @D36HDWS*/ 00019012
* LPLWREXT BIT(8) CONSTANT('24'X), /* WRONG EXT.SEQ. NUMBER  @D51IDHB*/ 00019112
* LPLSLBFD BIT(8) CONSTANT('28'X), /* SAME LABEL FOUND       @D37DDWS*/ 00019212
* LPLFCINV BIT(8) CONSTANT('63'X); /* LABEL FUNCT.CODE INVAL.@D52VDHH*/ 00019312
*      %LPLLEN='LENGTH(LPLDCT)';  /* OPTAIN LENGTH OF LPL            */ 00019412
* DCL                     /*                                 @D65BDFM*/ 00019512
* 1   LPLCPCTY BASED,     /*                                 @D65BDFM*/ 00019612
*  2  LPLNLASA FIXED(15), /*NUMBER OF LAS'S AVAILABLE        @D65BDFM*/ 00019712
*  2  LPLNLASU FIXED(15), /*NUMBER OF LAS'S CURRENTLY IN USE @D65BDFM*/ 00019812
*  2  LPLNLASM FIXED(15); /*HIGHWATERMARK: MAX NUMBER IN USE @D65BDFM*/ 00019912
*/* END OF MAPPING MACRO                                             */ 00020010
