*/*      SUPERVISOR - MAPBDY - 5686-007-06-C44                       */ 00050000
* %GOTO MMAPBDY; /*  PLS COMMENT COVERING ASSEMBLER CODE -------->      00100000
         MACRO                                                          00150000
&NAME    MAPBDY &DSECT=NO                                               00200000
         LCLC  &LABNAM                                         @D36ZDWK 00250000
***************************************************************         00300000
*                                                             *@D51MDGL 00350000
.*       IBM VSE / ADVANCED FUNCTIONS                         *@D51MDGL 00400000
*        SUPERVISOR - MAPBDY  - 5686-032-06-C55               *@D51MDGL 00450000
.*                                                                      00500000
         AGO   .CPRIGHT                                                 00550000
.*                                                                      00600000
*        LICENSED MATERIALS - PROGRAM PROPERTY OF IBM         *@D51MDGL 00650000
*        THIS MACRO IS "RESTRICTED MATERIALS OF IBM"          *@D51MDGL 00700000
*        5686-032 (C) COPYRIGHT IBM CORP. 1979, 1990          *@D51MDGL 00750000
*        SEE COPYRIGHT INSTRUCTIONS                           *@D51MDGL 00800000
.*                                                                      00850000
.CPRIGHT ANOP                                                           00900000
*                                                             *@D51MDGL 00950000
***************************************************************         01000000
.*                                                                      01050000
.* * START OF SPECIFICATIONS ****************************************** 01100000
.*                                                                      01150000
.*01* MODULE-TYPE = MACRO                                               01200000
.*                                                                      01250000
.*01* DESCRIPTIVE NAME = MAPPING STRUCTURE FOR PARTION BOUNDARIES       01300000
.*                       CONTAINING PHYSICAL AND LOGICAL CHARAC-        01350000
.*                       TERISTIKS OF PARTITIONS RETRIEVED BY SVC98     01400000
.*                       ROUTINE FROM THE SMCB AND PPEND FIELD.         01450000
.*                                                                      01500000
.*                       THE MAPPING STRUCTURE EXPANDS EITHER IN A      01550000
.*                       DSECT (DSECT=YES) OR IN AN INLINE TABLE.       01600000
.*                                                                      01650000
.*01* CHANGE ACTIVITIES=  NEW MACRO   FIRST RELEASE 35.0       @D35EDWK 01700000
.*    CHANGE 01        =  PLS VERSION RELEASE AF2.1            @D14BDWK 01750000
.*                                                                      01800000
.*    CREATED BY  = EXTRACT MACRO (SVC98 ROUTINE)                       01850000
.*                                                                      01900000
.*    USED BY     = JOB CONTROL,DUMP-ROUTINES                           01950000
.*                                                                      02000000
.* END OF SPECICATIONS ************************************************ 02050000
         AIF   (T'&NAME NE 'O').NAME       LABEL GIVEN SKIP             02100000
&LABNAM  SETC  'MAPBDY'                    SET DEFAULT NAME             02150000
         AGO   .NAME1                                                   02200000
.NAME    ANOP                              USE LABEL                    02250000
&LABNAM  SETC  '&NAME'                                                  02300000
.NAME1   ANOP                                                           02350000
         AIF   ('&DSECT' EQ 'YES').DSECT   YES DSECT GENERATION         02400000
         AIF   ('&DSECT' EQ 'NO').INLINE   GEN. INLINE CODE    @D36ZDWK 02450000
         MNOTE 1,'INVALID DSECT OPERAND SPECIFIED, INLINE ASSUMED'      02500000
.INLINE  ANOP                                                           02550000
&LABNAM  DS    0F                          MAPBDY                       02600000
         AGO   .GENTAB                                                  02650000
.DSECT   ANOP                                                           02700000
&LABNAM  DSECT                             DUMMY SCETION FOR MAPBDY     02750000
.GENTAB  ANOP                                                           02800000
PBEGIN   DS    F                           PARTITION START ADDRESS      02850000
PENDLOG  DS    F                           PARTITION LOGICAL END        02900000
PGEND    DS    F                           PARTITION PHYSICAL END       02950000
PFIXLMT  DS    F                           PFIX LIMIT IN K BYTES        03000000
PFIXCNT  DS    F                           NUMBER OF PFIXED PAGES       03050000
MBDYLEN  EQU   *-PBEGIN                    MAPBDY AREA LENGTH  @D355DWK 03100000
         MEND                                                           03150000
*  THE PL/S MAP HAS TO BE %INCLUDED                                     03200000
*  END OF PLS COMMENT                                    -------->   */ 03250000
*%MMAPBDY : ;                         /*                             */ 03300000
*    DCL 1     MAPBDY BASED,          /*   DUMMY SECTION FOR MAPBDY  */ 03350000
*         2    PBEGIN FIXED(31),      /*   PARTITION START ADDRESS   */ 03400000
*         2    PENDLOG FIXED(31),     /*   PARTITION LOGICAL END     */ 03450000
*         2    PGEND   FIXED(31),     /*   PARTITION PHYSICAL END    */ 03500000
*         2    PFIXLMT FIXED(31),     /*   PFIX LIMIT IN K BYTES     */ 03550000
*         2    PFIXCNT FIXED(31);     /*   NUMBER OF PFIXED PAGES    */ 03600000
