         MACRO                                                          00050000
&NAME    MAPBDYVR &DSECT=NO                                             00100000
         LCLC  &LABNAM                                         @D36ZDWK 00150000
***************************************************************         00200000
*                                                             *@D51MDGL 00250000
.*       IBM VSE / ADVANCED FUNCTIONS                         *@D51MDGL 00300000
*        SUPERVISOR - MAPBDYVR - 5686-007-06-C44              *@D51MDGL 00350000
.*                                                                      00400000
         AGO   .CPRIGHT                                                 00450000
.*                                                                      00500000
*        LICENSED MATERIALS - PROGRAM PROPERTY OF IBM         *@D51MDGL 00550000
*        THIS MACRO IS "RESTRICTED MATERIALS OF IBM"          *@D51MDGL 00600000
*        5686-007 (C) COPYRIGHT IBM CORP. 1979, 1989          *@D51MDGL 00650000
*        SEE COPYRIGHT INSTRUCTIONS                           *@D51MDGL 00700000
.*                                                                      00750000
.CPRIGHT ANOP                                                           00800000
*                                                             *@D51MDGL 00850000
***************************************************************         00900000
.*                                                                      00950000
.* /* START OF SPECIFICATIONS ***************************************** 01000000
.*                                                                      01050000
.*01* MODULE-TYPE = MACRO                                               01100000
.*                                                                      01150000
.*01* DESCRIPTIVE NAME = MAPPING STRUCTURE FOR PARTION BOUNDARIES       01200000
.*                       CONTAINING PHYSICAL AND LOGICAL CHARAC-        01250000
.*                       TERISTIKS OF VIRTUAL AND REAL PARTITIONS       01300000
.*                       RETRIEVED BY SVC98 ROUTINE FROM SMCB.          01350000
.*                                                                      01400000
.*                       THE MAPPING STRUCTURE EXPANDS EITHER IN A      01450000
.*                       DSECT (DSECT=YES) OR IN AN INLINE TABLE.       01500000
.*                                                                      01550000
.*01* CHANGE ACTIVITIES=  NEW MACRO   FIRST RELEASE 35.0       @D35EDWK 01600000
.*                                                                      01650000
.*    CREATED BY  = EXTRACT MACRO (SVC98 ROUTINE)                       01700000
.*                                                                      01750000
.*    USED BY     = JOB CONTROL,DUMP-ROUTINES                           01800000
.*                                                                      01850000
.** END OF SPECICATIONS **********************************************/ 01900000
         AIF   (T'&NAME NE 'O').NAME                                    01950000
&LABNAM  SETC  'MAPBDYVR'                                               02000000
         AGO   .NAME1                                                   02050000
.NAME    ANOP                                                           02100000
&LABNAM  SETC  '&NAME'                                                  02150000
.NAME1   ANOP                                                           02200000
         AIF   ('&DSECT' EQ 'YES').DSECT   YES DSECT GENERATION         02250000
         AIF   ('&DSECT' EQ 'NO').INLINE   INLINE GENERATION   @D36ZDWK 02300000
         MNOTE 1,'INVALID DSECT OPERAND SPECIFIED, INLINE ASSUMED'      02350000
.INLINE  ANOP                                                           02400000
&LABNAM  DS    0F                          MAPBDYVR                     02450000
         AGO   .GENTAB                                                  02500000
.DSECT   ANOP                                                           02550000
&LABNAM  DSECT                             DUMMY SCETION FOR MAPBDYVR   02600000
.GENTAB  ANOP                                                           02650000
VPBEGIN  DS    F                           VIRTUAL PART.START ADDRESS   02700000
VPEND    DS    F                           VIRTUAL PART.LOGICAL END     02750000
VPGEND   DS    F                           VIRTUAL PART.PHYSICAL END    02800000
RPBEGIN  DS    F                           REAL PARTITION START ADDRESS 02850000
RPEND    DS    F                           REAL PARTITION END ADDRESS   02900000
VBDYLEN  EQU   *-VPBEGIN                   MAPBDYVR AREA LEN.  &D355DWK 02950000
         MEND                                                           03000000
