         MACRO                                                          00050052
&NAME    MAPCDR &DSECT=                                                 00100052
***************************************************************         00150052
*                                                             *@D51MDGL 00200052
.*       IBM VSE / ADVANCED FUNCTIONS                         *@D51MDGL 00250052
*        SUPERVISOR - MAPCDR  - 5686-032-06-C55               *@D51MDGL 00300052
.*                                                                      00350052
         AGO   .CPRIGHT                                                 00400052
.*                                                                      00450052
*        LICENSED MATERIALS - PROGRAM PROPERTY OF IBM         *@D51MDGL 00500052
*        THIS MACRO IS "RESTRICTED MATERIALS OF IBM"          *@D51MDGL 00550052
*        5686-032 (C) COPYRIGHT IBM CORP. 1990                *@D51MDGL 00600052
*        SEE COPYRIGHT INSTRUCTIONS                           *@D51MDGL 00650052
.*                                                                      00700052
.CPRIGHT ANOP                                                           00750052
*                                                             *@D51MDGL 00800052
***************************************************************         00850052
.* /* START OF SPECIFICATIONS ***************************************** 00900052
.*                                                                    * 00950052
.*01* MACRO-TYPE  = MAPPING MACRO FOR CONFIGURATION DATA RECORD       * 01000052
.*                                                                    * 01050052
.*01* FUNCTIONAL-DESCRIPTION =                                        * 01100052
.*    THIS MACRO CONTAINS THE MAPPING OF THE CONFIGURATION DATA       * 01150052
.*    RECORD ENTRIES AS CAN BE READ USING THE READ CONFIGURATION      * 01200052
.*    DATA CHANNEL COMMAND WORD.                                      * 01250052
.*                                                                    * 01300052
         AIF ('&DSECT' EQ 'YES').CRDS                          @D51IDGL 01350052
         AIF (T'&NAME EQ 'O').NONAM1                           @D51IDGL 01400052
&NAME    DS   0F                                               @D51IDGL 01450052
         AGO  .CODEBEG                                         @D51IDGL 01500052
.NONAM1  ANOP                                                  @D51IDGL 01550052
MAPCDR   DS   0F                  START OF MAPPING             @D51IDGL 01600052
         AGO  .CODEBEG                                         @D51IDGL 01650052
.CRDS    AIF (T'&NAME EQ 'O').NONAM                            @D51IDGL 01700052
&NAME    DSECT                                                 @D51IDGL 01750052
         AGO  .CODEBEG                                         @D51IDGL 01800052
.NONAM   ANOP                                                  @D51IDGL 01850052
MAPCDR   DSECT                    START OF DSECT               @D51IDGL 01900052
.CODEBEG ANOP                                                  @D51IDGL 01950052
*                                                              @D52BDGL 02000052
*   GENERAL LAYOUT OF ONE ENTRY IN A CONFIGURATION DATA REC.   @D52BDGL 02050052
*                                                              @D52BDGL 02100052
CDRENTRY DS    0XL32                                           @D52BDGL 02150052
CDRENFLG DS    X                                               @D52BDGL 02200052
CDRENFUS EQU   X'00'                                           @D52BDGL 02250052
CDRENFSN EQU   X'40'                                           @D52BDGL 02300052
CDRENFGN EQU   X'80'                                           @D52BDGL 02350052
CDRENFND EQU   X'C0'                                           @D52BDGL 02400052
CDRENFTO EQU   X'E0'                                           @D52BDGL 02450052
         DS    XL31                                            @D52BDGL 02500052
CDRENEXT DS    0H                                              @D52BDGL 02550052
*                                                              @D52BDGL 02600052
         ORG   CDRENTRY                                        @D52BDGL 02650052
*                                                              @D52BDGL 02700052
*   LAYOUT OF GENERAL NEQ IN CONFIGURATION DATA RECORD         @D52BDGL 02750052
*                                                              @D52BDGL 02800052
CDRGNEQ  DS    0XL32                                           @D52BDGL 02850052
CDRGNFLG DS    X       FLAG BYTE                               @D52BDGL 02900052
CDRGNSEL DS    X       RECORD SELECTOR BYTE                    @D52BDGL 02950052
CDRGNIID DS    XL2     INTERFACE ID                            @D52BDGL 03000052
CDRGNATT DS    XL2     ATTRIBUTES                              @D52BDGL 03050052
         DS    XL2     RESERVED BYTES, ZERO                    @D52BDGL 03100052
CDRGNQAL DS    0XL24   GNEQ QUALIFIER BYTES                    @D52BDGL 03150052
*                                                              @D52BDGL 03200052
         ORG   CDRENTRY                                        @D52BDGL 03250052
*                                                              @D52BDGL 03300052
*   LAYOUT OF SPECIFIC NEQ IN CONFIGURATION DATA RECORD        @D52BDGL 03350052
*                                                              @D52BDGL 03400052
CDRSNEQ  DS    0XL32                                           @D52BDGL 03450052
CDRSNFLG DS    X                                               @D52BDGL 03500052
         DS    XL7                                             @D52BDGL 03550052
CDRSNQAL DS    XL24    QUALIFIER BYTES OF SPECIFIC NEQ         @D52BDGL 03600052
*                                                              @D52BDGL 03650052
         ORG   CDRENTRY                                        @D52BDGL 03700052
*                                                              @D52BDGL 03750052
*   LAYOUT OF ONE NODE ELEMENT DESCRIPTOR                      @D52BDGL 03800052
*                                                              @D52BDGL 03850052
CDRNED   DS    0XL32                                           @D52BDGL 03900052
CDRNDFLG DS    X                                               @D52BDGL 03950052
CDRNDFTO EQU   X'20'   THIS NED IS A TOKEN NED                 @D52BDGL 04000052
CDRNDFRC EQU   X'04'   THIS IS A RECONFIGURATION NED           @D52BDGL 04050052
CDRNDTYP DS    X       TYPE OF ELEMENT DESCRIBED BY THIS NED   @D52BDGL 04100052
CDRNDTIO EQU   X'01'     NED BELONGS TO I/O DEVICE             @D52BDGL 04150052
CDRNDTCU EQU   X'02'     NED BELONGS TO CONTROL UNIT           @D52BDGL 04200052
CDRNDCLS DS    X                                               @D52BDGL 04250052
         DS    XL29    RESERVED                                @D52BDGL 04300052
         MEND                                                           04350052
