*/* RMSR - MAPCOMR - 5686-CF7                                @D31LDMZ*/ 00001033
*%GOTO MMAPCOMR;                                           /*@D34YDAZ*/ 00002029
*/* THIS IS THE BEGINNING OF A LONG PL/S COMMENT TO ISOLATE    @D34YDWR 00003029
*   THE ENTIRE ASSEMBLER VERSION OF THIS MACRO SO THAT IT      @D34YDWR 00004029
*   CAN CONTAIN UNBALANCED QUOTE MARKS.                        @D34YDWR 00005029
         MACRO                                                          00006029
&NAME    MAPCOMR &EQU=NO,&DSECT=YES,&RESCON=NO                 @D61NDMZ 00007029
         GBLB  &BG16             TRKHLD                        @D51IDMZ 00008029
         GBLB  &BG31             RPS                           @D51IDMZ 00009029
         GBLB  &RESC             RESOLVE LABEL CONFLICTS       @D61NDMZ 00010029
         LCLB  &BLE              GENERATION OF FLAG EQUATES    @D14ZDFG 00011029
&BLE     SETB  ('&EQU' EQ 'YES')                               @D14ZDFG 00012029
&RESC    SETB  ('&RESCON' EQ 'YES')                            @D61NDMZ 00013029
.*       IBM DISK OPERATING SYSTEM                            *@D368DEM 00014029
*        SUPERVISOR - MAPCOMR - 5686-CF7                      *@D61NDMZ 00015031
         AGO   .ZZZ                                           *@D368DEM 00016029
*        LICENSED MATERIALS - PROPERTY OF IBM                 *@D31GDMZ 00017029
*        THIS MACRO IS "RESTRCITED MATERIALS OF IBM"          *@D31GDMZ 00018029
*        5686-CF7 (C) COPYRIGHT IBM CORP. 1979, 2004          *@D61NDMZ 00019031
*        SEE COPYRIGHT INSTRUCTIONS                           *@D31GDMZ 00020029
.ZZZ     ANOP                                                 *@D368DEM 00021029
         AIF   (T'&DSECT EQ 'O').PRDS                          @D51IDMZ 00022029
         AIF   ('&DSECT' EQ 'YES').PRDS                        @D51IDMZ 00023029
         AIF   ('&DSECT' EQ 'NO').INLINE                       @D51IDMZ 00024029
.PRDS    ANOP                                                  @D51IDMZ 00025029
         AIF   (T'&NAME EQ 'O').NONAME                                  00026029
&NAME    DSECT                                                          00027029
         AGO   .NAME                                                    00028029
.NONAME  ANOP                                                           00029029
COMREG   DSECT                                                          00030029
.NAME    ANOP                                                           00031029
JOBDATWC DS    0CL11              00 JOB DATE WITH CENTURY     @D52VDMZ 00032029
JOBDATE  DS    CL8                00 JOB DATE                           00033029
         DS    CL3                08 CENTURY                   @D52VDOW 00034029
         DS    X                  11 RESERVED                  @D52VDOW 00035029
COMUSCR  DS    11X                12 USER SCRATCH AREA         @D35EDAZ 00036029
UPSI     DS    X                  23 UPSI BYTE                          00037029
COMNAME  DS    CL8                24 JOB NAME                           00038029
PPEND    DS    F                  32 HIGHEST STORAGE ADDR OF PARTITION  00039029
HIPHAS   DS    F                  36 END ADDR OF LAST PHASE LOADED      00040029
HIPROG   DS    F                  40 END ADDR OF LONGEST PHASE LOADED   00041029
         AIF   (&RESC).CRESC1                                  @D61NDMZ 00042029
LABLEN   DS    H                  44 LENGTH OF PP LABEL AREA            00043029
         AGO   .CRESC2                                         @D61NDMZ 00044029
.CRESC1  ANOP                                                  @D61NDMZ 00045029
IJBLABLN DS    H                  44 LENGTH OF PP LABEL AREA   @D61NDMZ 00046029
.CRESC2  ANOP                                                  @D61NDMZ 00047029
PID      DS    H                  46 PROGRAM INTERRUPT KEY (PIK)        00048029
EOCADR   DS    F                  48 END OF VIRTUAL STORAGE (LAST BYTE  00049029
*                                    IN ADDRESS SPACE)         @D52VDMZ 00050029
CONFIG   DS    X                  52 MACHINE CONFIGURATION BYTE         00051029
         AIF   (NOT &BLE).NOE02                                @D14ZDFG 00052029
RMSBIT   EQU   X'01'                  7 RAS CONFIGURATION FLAG @D14ZDFG 00053029
.NOE02   ANOP                                                  @D14ZDFG 00054029
LTACT    DS    X                  53 SYSTEM CONFIGURATION BYTE          00055029
         AIF   (NOT &BLE).NOE04                                @D14ZDFG 00056029
         AIF   (&RESC).CRESC3                                  @D61NDMZ 00057029
DDMMYY   EQU   X'80'                 0  DATE FORMAT DDMMYY     @D14ZDFG 00058029
         AGO   .CRESC4                                         @D61NDMZ 00059029
.CRESC3  ANOP                                                  @D61NDMZ 00060029
IJBDFORM EQU   X'80'                 0  DATE FORMAT DDMMYY     @D61NDMZ 00061029
.CRESC4  ANOP                                                  @D61NDMZ 00062029
MPSMSK   EQU   X'40'                 1  MPS SUPPORTED          @D51IDMZ 00063029
.NOE04   ANOP                                                  @D14ZDFG 00064029
DASDFPSW EQU   X'20'                 2  DASDFP ACTIVE                   00065029
         AIF   (NOT &BLE).NOE05                                @D14ZDFG 00066029
TPMSK    EQU   X'08'                 4  TP SUPPOTED            @D51IDMZ 00067029
.NOE05   ANOP                                                  @D14ZDFG 00068029
SOB1     DS    X                  54 STDJC SWITCH 1                     00069029
IJBLIST  EQU   X'40'                  1  STDOPT LIST           @D65EDFM 00069129
IJBLSTX  EQU   X'20'                  2  STDOPT LISTX          @D65EDFM 00069229
SOB2     DS    X                  55 STDJC SWITCH 2                     00069329
         AIF   (NOT &BLE).NOE08                                @D14ZDFG 00069429
DUMDVC   EQU   X'08'                  4  DUMMY DEVICE SEARCH   @D14ZDFG 00069529
.NOE08   ANOP                                                  @D14ZDFG 00069629
JCSW1    DS    X                  56 JOB CONTROL SWITCHES               00069729
         AIF   (NOT &BLE).NOE10                                @D14ZDFG 00069829
JASWITCH EQU   X'80'                  0  JA NOT ACTIVE         @D14ZDFG 00069929
JCOPEN   EQU   X'40'                  1  RETURN ON OPEN ERROR  @D14ZDFG 00070029
JCINRDR  EQU   X'20'                  2  JC INPUT FROM SYSRDR  @D14ZDFG 00071029
JCLOGMSK EQU   X'10'                  3  JC OUTPUT TO SYSLOG   @D51IDMZ 00072029
JOBEND   EQU   X'08'                  4  JOB TO BE FLUSHED     @D14ZDFG 00073029
IJBPAUSE EQU   X'04'                  5  PAUSE IS SPECIFIED    @D61ZDMZ 00074029
*                                     6  SYSLOG IS A 1052      @D149DFG 00075029
*                                     7  RESERVED              @D149DFG 00076029
.NOE10   ANOP                                                  @D14ZDFG 00077029
JCSW2    DS    X                  57 LINKAGE CONTROL BYTE               00078029
.*                                    0  SYSLNK IS OPEN        @D149DFG 00079029
IJBACTCL EQU   X'40'                  1  ACTION CLEAR INDIC.   @D14ZDFG 00080029
ALLOWEX  EQU   X'20'                  2  EXEC ALLOWED          @D14ZDFG 00081029
.*                                    3  CATALOG OUTPUT        @D149DFG 00082029
IGNTESTM EQU   X'08'                  4  IGNORE TESTMODE       @DA28147 00083029
.*                                   5-7 RESERVED              @D149DFG 00084029
.NOE12   ANOP                                                  @D14ZDFG 00085029
JCSW3    DS    X                  58 LANGUAGE TRANSLATOR CONTROL BYTE   00086029
         AIF   (NOT &BLE).NOE15                                @D14ZDFG 00087029
*                                     0  OPTION DECK           @D149DFG 00088029
IJBLISTT EQU   X'40'                  1  OPTION LIST           @D65EDFM 00089029
IJBLSTXT EQU   X'20'                  2  OPTION LISTX          @D65EDFM 00090029
*                                     3  OPTION SYM            @D149DFG 00091029
*                                     4  OPTION XREF           @D149DFG 00092029
*                                     5  OPTION ERRS           @D149DFG 00093029
*                                     6  OPTION 48C            @D149DFG 00094029
JBCOPNS  EQU   X'01'                  7  SYSTEM CLOSE          @D149DFG 00095029
.NOE15   ANOP                                                  @D14ZDFG 00096029
JCSW4    DS    X                  59 JOB DURATION INDICATOR BYTE        00097029
         AIF   (NOT &BLE).NOE16                                @D14ZDFG 00098029
IJBJOBAC EQU   X'80'                  0  JOB IS ACTIVE         @D65EDFM 00099029
OPTDUMP  EQU   X'40'                  1  OPTION DUMP           @D14ZDFG 00100029
*                                     2  PAUSE AT END OF STEP  @D149DFG 00101029
JCLOGLST EQU   X'10'                  3  JC OUTPUT TO SYSLST   @D65EDFM 00102029
*                                    4-5 RESERVED              @D149DFG 00103029
DATEBIT  EQU   X'02'                  6  // DATE PRESENT       @D14ZDFG 00104029
BATINIT  EQU   X'01'                  7  BATCH COMMAND ISSUED  @D14ZDFG 00105029
.NOE16   ANOP                                                  @D14ZDFG 00106029
JCSW7    DS    X                  60 JOB CONTROL SWITCH        @D14ZDFG 00107029
OPCNCL   EQU   X'80'                  0  OPERATOR CANCEL IND.  @D14ZDFG 00108029
JCLTSTRN EQU   X'40'                  1  OPTION TSTRUN         @D14ZDFG 00109029
LIBPCHNG EQU   X'20'                  2  LIBDEF PROC CHANGE    @D14ZDFG 00110029
PRCFRSTL EQU   X'10'                  3  CHECK FOR PROC STMNT  @D14BDFG 00111029
PRCFRSTH EQU   X'08'                  4  CHECK FOR PROC STMNT  @D14BDFG 00112029
IJBOVLOG EQU   X'04'                  5  OV.STMNTS FROM SYSLOG @D14BDFG 00113029
IJBJCCNL EQU   X'02'                  6  JC CANCEL             @D14BDFG 00114029
IJBUSRMD EQU   X'01'                  7  USER MODE             @D14BDFG 00115029
NSTLEVEL DS    X                  61 PROCEDURE NESTING LEVEL   @D14BDFG 00116029
JCSW8    DS    X                  62 JOB CONTROL FLAGS         @D14ZDFG 00117029
IJBCNCPD EQU   X'80'                  0  OPER.CANCEL PENDING   @D14ZDFG 00118029
IJBRCCNC EQU   X'40'                  1  RC OPERATOR CANCEL    @D14ZDFG 00119029
IJBARCNA EQU   X'20'                  2  DELAY AR CANCEL       @D14ZDFG 00120029
IJBEOPDL EQU   X'10'                  3  EOP DELAYED           @D14ZDFG 00121029
IJBABTRM EQU   X'08'                  4  ABNORMAL TERMINATION  @D14ZDFG 00122029
*                                    5-6 RESERVED              @D149DJB 00123029
IJBSKPAB EQU   X'01'                  7  SKIP ALL AB-TYPE EXITS@D64ADOW 00124029
         DS    X                  63 RESERVED                  @D14ZDFG 00125029
PUBPT    DS    H                  64 ADDRESS OF PUB TABLE               00126029
IJBJOBST DS    XL6                66 JOB START TIME            @D14NDFG 00127029
FICLPT   DS    H                  72 ADDRESS OF FICL                    00128029
NICLPT   DS    H                  74 ADDRESS OF NICL                    00129029
LUBPT    DS    H                  76 ADDRESS OF LUB TABLE               00130029
SYSLINE  DS    X                  78 SYSLST LINE COUNT                  00131029
SYSDATE  DS    0CL9               79 SYSTEM DATE                    4-0 00132029
MMDD     DS    XL4                     MMDD OR DDMM                 4-0 00133029
YYDDD    DS    XL5                     YYDDD PORTION OF DATE        4-0 00134029
LIOCSCOM DS    0XL2               88 LIOCS COMMUNICATIONS BYTES@D14ZDJB 00135029
*    1ST BYTE                                                  @D14ZDRP 00136029
LIOCSSW1 DS    X                  88 LIOCS SWITCH 1            @D14ZDJB 00137029
LIOCSRDS EQU   X'40'                 RETURN TO $$BODSMO        @D14ZDFG 00138029
LIOCSOIP EQU   X'04'                 OPEN/CLOSE IN PROGRESS    @D14ZDRP 00139029
LIOCSCPO EQU   X'02'                 CP/DI OPEN INDICATOR      @D14ZDRP 00140029
*    2ND BYTE                                                  @D14ZDRP 00141029
LIOCSSW2 DS    X                  89 LIOCS SWITCH 2            @D14ZDJB 00142029
LIOCSRSV EQU   X'80'                 RETURN FROM SVA           @D14ZDRP 00143029
LIOCSRTM EQU   X'08'                 RETURN FROM TAPE MSGWRITER@D14ZDRP 00144029
LIOCSRLB EQU   X'04'                 RETURN FROM $$BOPLBL      @D14ZDRP 00145029
LIOCSQTM EQU   X'04'                 QTAM DTF                  @D14ZDRP 00146029
LIOCSRLK EQU   X'02'                 RETURN FROM 'LOCK'        @D14ZDRP 00147029
LIOCSVER EQU   X'01'                 RETURN FROM VENDOR EXIT   @D61NDMZ 00148029
PIBPT    DS    H                  90 ADDRESS OF PIB TABLE               00149029
CHKPTID  DS    H                  92 LAST CHECKPOINT NUMBER             00150029
JOBZON   DS    2X                 94 JOB ZONE IN MINUTES            5-0 00151029
DIBPT    DS    H                  96 BACKGROUND DIB POINTER             00152029
DEVFLG1  DS    X                  98 DEVICE FLAG               @D34YSSK 00153029
OPN3800  EQU   X'80'                  0  3800 EXT.BUF. OPEN    @D14ZDFG 00154029
IJBACRPR EQU   X'40'                  1  AUTOMATIC CLOSE       @D21DDJB 00155029
*                                        REQUEST FOR PRINTER   @D219DJB 00156029
OPNBYT2  DS    X                  99 FLAG BYTE                 @D35ZDEM 00157029
BTAMFLG  EQU   X'80'                  0  BTAM IN PARTITION     @D35ZDEM 00158029
SYSCENT  DS    H                  100 CENTURY OF SYSDATE       @D52VDMZ 00159029
IJBMSSTK DS    XL4                102 MESSAGE STACK POINTER    @D66ADAP 00160029
PWTIMS   DS    H                  106 KEY OF PROGRAM WITH IT SUPPORT    00161029
IJBASID  DS    H                  108 ACTIVE SPACE ID OF PART. @D14NDFG 00162029
LTK      DS    H                  110 LOGICAL TRANSIENT KEY             00163029
SYSPAR   DS    CL4                112 ADDRESS OF SYSPARM FIELD      5-0 00164029
JAPART   DS    F                  116 POINTER TO JA PARTITION TABLE 5-0 00165029
TODCOM   DS    F                  120 ADDR OF TOD CLOCK COMM AREA   5-0 00166029
PIB2PTR  DS    H                  124 ADDRESS OF PIB EXTENSION          00167029
PDTABB   DS    H                  126 ADDR OF MICR DTF TABLE            00168029
LABELPTR DS    F                  128 ADDR OF LABEL SPACE      @D35ZDAZ 00169029
BGCOMPT  DS    H                  132 RESERVED                 @D379DEM 00170029
OPTNBYTE DS    X                  134 OPTION INDICATOR BYTE         4-0 00171029
         AIF   (NOT &BLE).NOE26                                @D14ZDFG 00172029
ANCHTBIT EQU   X'01'                  7  GETVIS INITIALIZED    @D14ZDFG 00173029
.NOE26   ANOP                                                  @D14ZDFG 00174029
RMSROPEN DS    X                  135 SYSTEM CONFIG BYTE 2          4-0 00175029
         AIF   (NOT &BLE).NOE28                                @D14ZDFG 00176029
TODBIT   EQU   X'40'                  1  TOD SUPPORT AVAIL     @D14ZDFG 00177029
IJBBUFIG EQU   X'08'                  4  BUFFER LOAD IGNORED   @DA33314 00178029
.NOE28   ANOP                                                  @D14ZDFG 00179029
IJBJCWA  DS    F                  136 A(JOB CONTROL WORK AREA) @D14NDFG 00180029
STDOPT   DS    X                  140 STANDARD OPTIONS              5-0 00181029
         AIF   (NOT &BLE).NOE30                                @D14ZDFG 00182029
OPTPDUMP EQU   X'20'                  2  OPTION PARTDUMP       @D14ZDFG 00183029
.NOE30   ANOP                                                  @D14ZDFG 00184029
TEMOPT   DS    X                  141 TEMPORARY OPTIONS             5-0 00185029
IJBOPDMP EQU   X'20'                  2  PART. DUMP            @D52VDMZ 00186029
IJBOSUBL EQU   X'02'                  OFF: OPTION SUBLIB=AE    @D52VDMZ 00187029
*                                     ON : OPTION SUBLIB=DF    @D52VDMZ 00188029
DISKCONF DS    X                  142 DISK CONFIG BYTE                  00189029
PROCNAM  DS    CL8                143 PROCEDURE NAME                 VB 00190029
PSWTCH   DS    X                  151 INTERFACE FLAGS FOR CAT. PROC. VB 00191029
IJBPCALL EQU   X'80'                  0  PROCEDURE BEING EXEC. @D14ZDFG 00192029
IJBPOVMD EQU   X'40'                  1  OVERWRITE MODE        @D14ZDFG 00193029
IJBPDATA EQU   X'20'                  2  PROC.WITH SYSIPT DATA @D14ZDFG 00194029
IJBPOVRQ EQU   X'10'                  3  OVERWRITE REQ. FOR JC @D14ZDFG 00195029
IJBPINST EQU   X'08'                  4  INSERT REQ. FOR JC    @D14ZDFG 00196029
IJBPNDMK EQU   X'04'                  5  END OF PROCEDURE      @D14ZDFG 00197029
IJBPSLOG EQU   X'02'                  6  CALLED FROM SYSLOG    @D14ZDFG 00198029
IJBPOVBT EQU   X'01'                  7  OVERWRITE REQUEST     @D14ZDFG 00199029
POVNAM   DS    CL7                152 STATEMENT NAME                 VB 00200029
INSIZE   DS    X                  159 INDICATOR 81 BYTE        @D357DAZ 00201029
         AIF   (NOT &BLE).NOE38                                @D14ZDFG 00202029
RDR81P   EQU   X'80'                  0  PERM. 81 BYTES ON RDR @D65EDFM 00203029
IPT81P   EQU   X'40'                  1  PERM. 81 BYTES ON IPT @D65EDFM 00204029
RDR81T   EQU   X'20'                  2  TEMP. 81 BYTES ON RDR @D14ZDFG 00205029
IPT81T   EQU   X'10'                  3  TEMP. 81 BYTES ON IPT @D14ZDFG 00206029
RDR81S   EQU   X'08'                  4  SAVED 81 BYTES ON RDR @D65EDFM 00207029
IPT81S   EQU   X'04'                  5  SAVED 81 BYTES ON IPT @D65EDFM 00208029
*                                     6  RESERVED              @D149DFG 00209029
CATALSA  EQU   X'01'                  7  ALLOW /& ON SYSIPT    @D149DFG 00210029
.NOE38   ANOP                                                  @D14ZDFG 00211029
POWPCB   DS    F                  160 ADDR OF PART CONT BLOCK  @D30EULR 00212029
POWFLG1  DS    X                  164 POWER/VS FLAG BYTE 1     @D30EULR 00213029
         AIF   (NOT &BLE).NOE40                                @D14ZDFG 00214029
POWACCT  EQU   X'80'                  0  POWER ACCOUNTING SUPP @D14ZDFG 00215029
POWUPART EQU   X'40'                  1  POWER CONTROLLED PART @D14ZDFG 00216029
POWPART  EQU   X'20'                  2  POWER PARTITION       @D14ZDFG 00217029
POWPDORM EQU   X'10'                  3  POWER PART. DORMANT   @D14ZDJB 00218029
POWWPART EQU   X'08'                  4  PART WAITING FOR WORK @D14ZDFG 00219029
POWBAM   EQU   X'04'                  5  PWR BAM TRC INTERFACE @D31GDMZ 00220029
POWHIGH  EQU   X'02'                  6  PWR HAS LOWER PRIORITY@D31GDMZ 00221029
POWSPERR EQU   X'01'                  7  PWR D-FILE WRITE ERROR@D51IDMZ 00222029
.NOE40   ANOP                                                  @D14ZDFG 00223029
POWFLG2  DS    X                  165 POWER/VS FLAG BYTE 2     @D30EULR 00224029
POWUNBCH EQU   X'80'                  0  PWR AUTO UNBATCH IND. @D31LDMZ 00225029
POWUNBTS EQU   X'40'                  1  PWR - TSTOP FEEDBACK  @D31LDMZ 00226029
POWINTER EQU   X'20'                  2  PWR IN TERMINATION    @D51IDMZ 00227029
POWINTFL EQU   X'10'                  3  PWR INTERNAL FLUSH    @D52VDMZ 00228029
POWPFRC  EQU   X'08'                  4  PWR PEND FORCE        @D52VDMZ 00229029
POWIGLOG EQU   X'04'                  5  IGNORE SYSLOG INFO    @D52VDMZ 00230029
POWWRONL EQU   X'02'                  6  WRITER ONLY PART.     @D52VDMZ 00231029
POWDREC  EQU   X'01'                  7  DUMMY RECORD          @D52VDMZ 00232029
IJBVSSNP DS    H                  166 VSAM SNAP FUNCTION BYTES @D14CDJB 00233029
IJBSNP01 EQU   X'80'                  0  SNAP DUMP INDICATOR 1 @D14CDJB 00234029
IJBSNP02 EQU   X'40'                  1  SNAP DUMP INDICATOR 2 @D14CDJB 00235029
IJBSNP03 EQU   X'20'                  2  SNAP DUMP INDICATOR 3 @D14CDJB 00236029
IJBSNP04 EQU   X'10'                  3  SNAP DUMP INDICATOR 4 @D14CDJB 00237029
IJBSNP05 EQU   X'08'                  4  SNAP DUMP INDICATOR 5 @D14CDJB 00238029
IJBSNP06 EQU   X'04'                  5  SNAP DUMP INDICATOR 6 @D14CDJB 00239029
IJBSNP07 EQU   X'02'                  6  SNAP DUMP INDICATOR 7 @D14CDJB 00240029
IJBSNP08 EQU   X'01'                  7  SNAP DUMP INDICATOR 8 @D14CDJB 00241029
IJBSNP09 EQU   IJBSNP01           167 0  SNAP DUMP INDICATOR 9 @D14CDJB 00242029
IJBSNP10 EQU   IJBSNP02               1  SNAP DUMP INDICATOR 10@D61NDMZ 00243029
IJBSNP11 EQU   IJBSNP03               2  SNAP DUMP INDICATOR 12@D61NDMZ 00244029
IJBSNP12 EQU   IJBSNP04               3  SNAP DUMP INDICATOR 13@D61NDMZ 00245029
IJBSNP13 EQU   IJBSNP05               4  SNAP DUMP INDICATOR 14@D61NDMZ 00246029
IJBSNP14 EQU   IJBSNP06               5  SNAP DUMP INDICATOR 15@D61NDMZ 00247029
IJBSNP15 EQU   IJBSNP07               6  SNAP DUMP INDICATOR 16@D61NDMZ 00248029
IJBSNP16 EQU   IJBSNP08               7  SNAP DUMP INDICATOR 17@D61NDMZ 00249029
LUBEXT   DS    F                  168 ADDR OF LUB TABLE EXTENS @D35EDAZ 00250029
JCSW5    DS    X                  172 JOB CONTROL SWITCH 5     @D35EDAZ 00251029
*                                     0  CREATE // EXEC LNKEDT @D149DFG 00252029
*                                     1  CREATE // EXEC        @D149DFG 00253029
*                                     2  SYSLNK OPEN           @D149DFG 00254029
*                                     3  NEWVOL IGNORE ISSUED  @D149DFG 00255029
LSTLOG   EQU   X'08'                  4  LISTLOG FOR CANCEL    @D14ZDFG 00256029
ASIPL    EQU   X'04'                  5  IPL ASI               @D14ZDFG 00257029
ASICONT  EQU   X'02'                  6  JOB CONTROL ASI       @D14ZDFG 00258029
JCLACTIV EQU   X'01'                  7  JOB CONTROL ACTIV     @D14ZDFG 00259029
JCSW6    DS    X                  173 JOB CONTROL SWITCH 6     @D35EDAZ 00260029
*                                     0  ENTRY STATM. ALLOWED  @D149DFG 00261029
*                                     1  RESERVED              @DY40127 00262029
ASINOSEC EQU   X'20'                  2  EXEC FOR ASIPROC IN PR@DY40127 00263029
*                                        NO SECURITY CHECKING  @DY40127 00264029
JOBLOGSW EQU   X'10'                  3  WRITE JOB STMNT TO HC @D14ZDFG 00265029
JCLOUTA  EQU   X'08'                  4  ALT.ASSGNS FOR SYSOUT @D14ZDFG 00266029
SLAACTIV EQU   X'04'                  5  SLA ACTIVE            @D14ZDFG 00267029
SYSPROC  EQU   X'02'                  6  SYST.PROC.LIB.IN USE  @D14ZDFG 00268029
IJBFNSLB EQU   X'01'                  7  ALLOW TO ADD SYSTEM   @D14ZDJB 00269029
*                                        LABELS FROM FN (SSX)  @D149DJB 00270029
STDOPT2  DS    X                  174 STANDARD OPTIONS 2       @D35EDAZ 00271029
OPTNFSTR EQU   X'80'                  0  OPTION NOFASTTR       @D14ZDFG 00272029
OPTSDUMP EQU   X'40'                  1  OPTION SYSDUMP        @D14ZDFG 00273029
OPTPROC  EQU   X'20'                  2  OPTION PROC           @D14ZDFG 00274029
OPTPARM  EQU   X'10'                  3  OPTION PARM           @D14ZDFG 00275029
OPTJCNCL EQU   X'08'                  4  OPTION JCANCEL        @D14ZDFG 00276029
OPTNHCTR EQU   X'04'                  5  OPTION NOHCTRAN       @D14ZDFG 00277029
OPTDSPDM EQU   X'02'                  6  OPTION DATA SPACE DUMP@D52VDMZ 00278029
OPTSCNCL EQU   X'01'                  7  OPTION SCANCEL        @D52VDMZ 00279029
TEMOPT2  DS    X                  175 TEMPORARY OPTIONS 2      @D35EDAZ 00280029
IJBJPL   DS    F                  176 ADDR OF JPL OF PARTITION @D35ZDEM 00281029
IJBAFCB  DS    F                  180 SLOT FOR CICS            @D36ZDEM 00282029
IJBPHLST DS    F                  184 ADDR.FETCH/LOAD TRACE TAB@D36ZDEM 00283029
IJBJOBLG DS    0XL8               188 ADDR.OF LAST HC JOBSTMNT @D14ZDJB 00284029
         DS    XL1                188 CYCLE BYTE OF JOBSTMNT   @D14ZDJB 00285029
IJBDSKAD DS    XL5                189 DISK ADDRESS OF JOBSTMNT @D14ZDJB 00286029
IJBDSKLR DS    XL2                194 LOGICAL REC. OF JOBSTMNT @D14ZDJB 00287029
IJBASPF  DS    F                  196 A(SPF CONTROL AREA)      @D14CDFG 00288029
IJBGVCTL DS    F                  200 ADDR.OF GETVIS CNTL.INF. @D14CDFG 00289029
IJBIJJT  DS    F                  204 A(TAPE FILE CNTL BLOCKS) @D14CDFG 00290029
.* FIRST BYTE OF IJBIJJT IS USED AS FLAG BYTE                           00291029
TAPEOPND EQU   X'80'                  TAPE OPENED, USED BY BAM @D51HDMZ 00292029
IJBSPNAM DS    0CL8               208 SYSTEM GETVIS PART.POOL,USED BY  *00293029
                                      FETCH,FREED BY FREEV. ALL@D51IDMZ 00294029
         DS    CL4                    FIXED PART OF THE NAME   @D51IDMZ 00295029
IJBSPNLI DS    CL2                    VARIABLE PART IN SUBPOOL NAME    *00296029
                                      (SYSLOG ID)              @D51IDMZ 00297029
IJBSPIND DS    XL2                    SUBPOOL INDEX            @D51IDMZ 00298029
IJBPHNAM DS    CL8                216 EXEC PHASE NAME          @D14NDFG 00299029
IJBDECPY DS    F                  224 MIRROR DE ENTRY CHAIN    @DA33314 00300029
IJBECBU  DS    0F                 228 PARTITION UNBATCH ECB    @D31LDMZ 00301029
* FIRST TWO BYTES AND LAST BYTE OF ECB ARE USED BY POWER       @D31LDMZ 00302029
         DS    XL2                228 USED BY POWER            @D31LDMZ 00303029
IJBECBUB DS    X                  230 ECB BYTE                 @D31LDMZ 00304029
IJBECBUP EQU   X'80'                  POST BIT OF ECB          @D31LDMZ 00305029
         DS    X                  231 USED BY POWER            @D31LDMZ 00306029
JCSW9    DS    X                  232 JCL SWITCH 9             @D31LDMZ 00307029
IJBASIVA EQU   X'80'                  0 ASI PROC NAME AVAILABLE@D31LDMZ 00308029
IJBRSTRT EQU   X'40'                  1 PART. IS AUTO UNBATCHED@D31LDMZ 00309029
IJBWASDT EQU   X'20'                  2 DATA MODE RESET (TEMP.)@D61NDMZ 00310029
IJBREXX  EQU   X'10'                  3 REXX ACTIVE            @D61NDMZ 00311029
IJBUNBCH EQU   X'08'                  4 UNBATCH MUST BE DONE   @D61NDMZ 00312029
IJBDATEO EQU   X'04'                  5 DATE WITH OLD FORMAT   @D61ZDMZ 00313029
IJBMSWB1 DS    X                  233 MIS. SWITCH BYTE         @D31LDMZ 00314029
IJBNDUMP EQU   X'80'                  0 NO DUMP (POWER, DUMP)  @D31LDMZ 00315029
IJBVSMCU EQU   X'40'                  1 VSAM CATALOG UPDATE    @D51IDMZ 00316029
IJBCIINC EQU   X'20'                  2 GETVIS CI INCONSISTENT.@DY45190 00317029
*                                       .. USED BY SGDEBUG     @DY45190 00318029
IJBVSMLU DS    X                  234 IND.FOR VSAM SNAP DUMP O.@D31LDMZ 00319029
         DS    X                  235 UNUSED                   @D31LDMZ 00320029
IJBJCLBV DS    F                  236 JCL BASE VECTOR          @D31LDMZ 00321029
IJBPCEPT DS    F                  240 ADDRESS OF PART.PCE      @D51IDMZ 00322029
IJBHPHLA DS    F                  244 END ADDRESS OF HIGHEST   @D51IDMZ*00323029
                                      LOADED PHASE                      00324029
IJBOWNID DS    CL8                248 VMCF USERID              @D51IDMZ 00324129
IJBVMCF1 DS    X                  256 VMCF PROCESSING FLAG 1   @D51IDMZ 00324229
IJBVOWNR EQU   X'80'                  OWNER ID IS VALID        @D51IDMZ 00324329
IJBVONLY EQU   X'40'                  BUFFER IS UNUSED         @D61NDMZ 00324429
IJBVECHO EQU   X'20'                  OWNER WANTS ALL MSGS     @D51IDMZ 00324529
IJBVJOB  EQU   X'10'                  OWNER WANTS BEG/END ONLY @D51IDMZ 00324629
IJBVEREP EQU   X'08'                  OWNER WANTS REPLY ONLY   @D51IDMZ 00324729
IJBVCLER EQU   X'04'                  OWNER REACHED EOJ        @D51IDMZ 00324829
IJBTECHO EQU   X'02'                  TEMPORARY ECHO ACTIVE    @D61NDMZ 00324929
IJBCECHO EQU   X'01'                  CICS TEMP ECHO ACTIVE    @DDCR360 00325029
IJBTELVL DS    X                  257 TEMPORARY ECHO LEVEL     @D61NDMZ 00326029
POWFLG3  DS    X                  258 POWER FLAG BYTE 3        @D52VDMZ 00327029
IJBSTOP3 DS    X                  259 JCL STANDARD OPTIONS 3   @D52VDMZ 00328029
IJBIGNLS EQU   X'80'                  IGN LIB MEMBER LOCK.     @D61DDMZ 00329029
IJBACLS  EQU   X'40'                  ACL SUPPORT              @D61DDMZ 00330029
IJBOLDAS EQU   X'20'                  USE OLD ASSEMBLER        @D61NDMZ 00331029
IJBDMPC  EQU   X'10'                  DUMP TO DASD COND.       @D62DDFM 00332029
IJBTMOP3 DS    X                  260 JCL TEMP. OPTIONS 3      @D52VDMZ 00333029
IJBIGNLK EQU   X'80'                  IGN LIB MEMBER LOCK.     @D61DDMZ 00334029
IJBACL   EQU   X'40'                  ACL SUPPORT              @D61DDMZ 00335029
IJBOLDAT EQU   X'20'                  USE OLD ASSEMBLER        @D61NDMZ 00336029
IJBDMPCT EQU   X'10'                  DUMP TO DASD COND.       @D62DDFM 00337029
IJBSSKIP EQU   X'08'                  HAVE POWER SKIP * $$ SLI @DY45423 00338029
IJBRXFLG DS    X                  261 REXX FLAG BYTE           @D61DDMZ 00339029
         DS    2X                 262 RESERVED FOR FUT. USE    @D52VDMZ 00340029
IJBPFLBP DS    F                  264 PERM. PFIX LIMIT BELOW   @D52VDMZ 00341029
IJBPFLAP DS    F                  268 PERM. PFIX LIMIT BELOW   @D52VDMZ 00342029
         DS    CL8                272 RESERVED FOR FUTURE USE  @D68DDMZ 00343030
IJBRXJCL DS    F                  280 JCL ENTRY POINT (REXX)   @D61DDMZ 00344029
IJBSARC  DS    F                  284 UTILITY RC (SA ENV.)     @D61NDMZ 00345029
IJBSAUCB DS    F                  288 SA UTILITY CB            @D61NDMZ 00346029
IJBAPFP  DS    F                  292 AUTHO. PROG. FACILITY PTR@D64ADMZ 00347029
IJBSENV  DS    A                  296 PTR TO SECURITY CB       @D64ADMZ 00348029
IJBDUCPS DS    0CL8               300 DEF. USERID FOR CICS.PART. SEC.   00349029
*                                                              @D64ADMZ 00350029
         DS    CL6                300 FIXED PART FORSEC        @D64ADMZ 00351029
IJBDUCPL DS    CL2                306 SYSLOG ID                @D64ADMZ 00352029