*/*      SUPERVISOR - MAPDEVIN - 5686-007-06-C44                     */ 00050000
* %GOTO MMAPDEV; /*   PLS COMMENT COVERING ASSEMBLER CODE  ------->     00100000
         MACRO                                                          00150000
&NAME    MAPDEVIN &DSECT=YES,&RECID=NO                                  00200000
         LCLC  &LABNAM                                                  00250000
.*                                                                      00300000
***************************************************************         00350000
*                                                             *@D51MDGL 00400000
.*       IBM VSE / ADVANCED FUNCTIONS                         *@D51MDGL 00450000
*        SUPERVISOR - MAPDEVIN - 5686-007-06                  *@D31UDGN 00500001
.*                                                                      00550000
         AGO   .CPRIGHT                                                 00600000
.*                                                                      00650000
*        LICENSED MATERIALS - PROGRAM PROPERTY OF IBM         *@D51MDGL 00700000
*        THIS MACRO IS "RESTRICTED MATERIALS OF IBM"          *@D51MDGL 00750000
*        5686-007 (C) COPYRIGHT IBM CORP. 1979, 1999          *@D51MDGL 00800001
*        SEE COPYRIGHT INSTRUCTIONS                           *@D51MDGL 00850000
.*                                                                      00900000
.CPRIGHT ANOP                                                           00950000
*                                                             *@D51MDGL 01000000
***************************************************************         01050000
.*                                                                      01100000
.*                                                                      01150000
.**** START OF SPECIFICATIONS ***************************************** 01200000
.*                                                                      01250000
.*01* MODULE-TYPE = MACRO                                               01300000
.*                                                                      01350000
.*01* DESCRIPTIVE NAME = MAPPING OF OUTPUT FROM EXTRACT ID=DEVICE       01400000
.*                                                                      01450000
.*  STATUS           =  NEW MACRO - FIRST RELEASE AF 2.1                01500000
.*                                                                      01550000
.*  FUNCTION         =  SHOW LAYOUT OF DEVICE INFORMATION AREA          01600000
.*  NOTES            =  NONE                                            01650000
.*  DEPENDENCIES     =  NONE                                            01700000
.*  RESTRICTIONS     =  NONE                                            01750000
.*  REGISTER CONVENT.=  NONE                                            01800000
.*  PATCH LABEL      =  NONE                                            01850000
.*  MACRO TYPE       =  BILINGUAL                                       01900000
.*  PROCESSOR        =  ASM PLS                                         01950000
.*  MACRO SIZE       =  SEE OUTPUT                                      02000000
.*  ATTRIBUTES       =  DSECT OR AREA LAYOUT                            02050000
.*  ENTRY POINT      =  NONE                                            02100000
.*  PURPOSE          =  SEE FUNCTION                                    02150000
.*  LINKAGE          =  SEE INPUT                                       02200000
.*  CALLER           =                                                  02250000
.*  INPUT            =                                                  02300000
.*                      &NAME    MAPDEVIN  DSECT = YES | NO             02350000
.*                                                                      02400000
.*  OUTPUT           =  DEVICE INFORMATION LAYOUT                       02450000
.*                                                                      02500000
.*  EXIT NORMAL      =  MACRO EXPANSION                                 02550000
.*                                                                      02600000
.*  EXIT ERROR       =  NONE                                            02650000
.*                                                                      02700000
.*  EXTERNAL REFEREN.=  NONE                                            02750000
.*  ROUTINES         =  NONE                                            02800000
.*  DATA AREAS       =  NONE                                            02850000
.*  CONTROL BLOCKS   =  NONE                                            02900000
.*  TABLES           =  NONE                                            02950000
.*  MACROS           =  NONE                                            03000000
.*  MODIFIED REGISTER=  NONE                                            03050000
.*  CHANGE ACTIVITIES=  NEW MACRO   12/06/83                            03100000
.*                                                                      03150000
.*  A000000-999999                                             @D14CDWK 03200000
.*  RECID OPERAND ADDED                                        @D21IDGN 03250000
.*  SOME IMPROVEMENTS IN PLS PART              (SPE DY37265)   @D21FDRP 03300000
.*  MAPPING HAS BEEN EXTENDED TO PROVIDE REAL CU/DEV INFO      @DY45299 03310001
.*                                                                      03350000
.** END OF SPECICATIONS *********************************************** 03400000
.*                                                                      03450000
&LABNAM  SETC  'IJBDVINF'                                               03500000
         AIF   (T'&NAME EQ 'O').CHDSECT                                 03550000
&LABNAM  SETC  '&NAME'                                                  03600000
.CHDSECT ANOP                                                           03650000
         AIF   (T'&DSECT EQ 'O').GDSECT                                 03700000
         AIF   ('&DSECT' EQ 'NO').NODSECT                               03750000
.GDSECT  ANOP                                                           03800000
&LABNAM  DSECT                                                          03850000
         AGO   .LAYOUT                                                  03900000
.NODSECT ANOP                                                           03950000
&LABNAM  DS    0H                                                       04000000
.LAYOUT  ANOP                                                           04050000
IJBDVCUU DS    H                  CUU ADDRESS                           04100000
IJBDVDTC DS    X                  VSE DEVICE TYPE CODE                  04150000
IJBDVSNS DS    0XL7               SENSE DEVICE TYPE INFORMATION         04200000
IJBDVSNV DS    X                  VALIDITY FLAG                @D21FDRP 04250000
IJBDVVAL EQU   X'FF'              ENTRY IS VALID                        04300000
IJBDVCUN DS    XL2                CONTROL-UNIT TYPE NUMBER              04350000
IJBDVCUM DS    X                  CONROL-UNIT MODEL NUMBER              04400000
IJBDVDTN DS    XL2                DEVICE TYPE NUMBER                    04450000
IJBDVDTM DS    X                  DEVICE TYPE MODEL NUMBER              04500000
         AIF   ('&RECID' NE 'YES').NOREC                       @D21IDGN 04550000
IJBDVOBR DS    XL2                OBR - OS DEVICE CODE         @D21IDGN 04600000
IJBDVMDR DS    X                  MDR DEVICE CODE              @D21IDGN 04650000
IJBDVCID DS    X                  CU ID FROM RDC COMMAND       @D21IDAP 04700000
IJBDVRCC DS    X                  CONTROL UNIT TYPE CODE REAL  @DY45299 04710001
IJBDVRDC DS    X                  DEVICE TYPE CODE       REAL  @DY45299 04720001
.NOREC   ANOP                                                  @D21IDGN 04750000
IJBDVLEN EQU   *-IJBDVCUU         LENGTH OF AREA                        04800000
         MEND                                                           04850000
*    THE PLS MAP HAS TO BE %INCLUDED                                    04900000
*    END OF PLS COMMENT                            ------------->    */ 04950000
*%MMAPDEV : ;                         /*                             */ 05000000
*%DELIM1=',';                         /*                     @D21IDGN*/ 05050000
*%DELIM2=';';                         /*                     @D21IDGN*/ 05100000
*%IF IJBDVSTAT ¬= 'STATIC' %THEN  %IJBDVINT='BASED';  /*     @D21FDRP*/ 05150000
*          %ELSE %IJBDVINT='STATIC';                  /*     @D21FDRP*/ 05200000
*%IF MNAME¬='' %THEN %IJBDVDUM='DCL 1 MNAME IJBDVINT';   /*  @D21FDRP*/ 05250000
*         %ELSE                       /*                     @D21FDRP*/ 05300000
*           %IJBDVDUM='DCL 1 IJBDVINF IJBDVINT';         /*  @D21FDRP*/ 05350000
*            IJBDVDUM,                /* EXTRACT DEVICE INFORMATION  */ 05400000
*            2 IJBDVCUU BIT(16),      /* CUU ADDRESS                 */ 05450000
*            2 IJBDVDTC BIT(8),       /* VSE DEVICE TYPE CODE        */ 05500000
*            2 IJBDVSNS CHAR(7),      /* SENSE ID INFORMATION        */ 05550000
*              3 IJBDVSNV BIT(8),     /* X'FF' IF ENTRY IS VALID        05600000
*                                                            @D21FDRP*/ 05650000
*              3 IJBDVCUN BIT(16),    /* CONTROL-UNIT TYPE NUMBER    */ 05700000
*              3 IJBDVCUM BIT(8),     /* CONROL-UNIT MODEL NUMBER    */ 05750000
*              3 IJBDVDTN BIT(16),    /* DEVICE TYPE NUMBER          */ 05800000
*              3 IJBDVDTM BIT(8)      /* DEVICE TYPE MODEL NUMBER    */ 05850000
*%IF RECID='YES' %THEN %GOTO IJBDVSKP; /*                    @D21IDGN*/ 05900000
*                     DELIM2          /*                     @D21IDGN*/ 05950000
*                     %GOTO MAPEND;   /*                     @D21IDGN*/ 06000000
*%IJBDVSKP:;                          /*                     @D21IDGN*/ 06050000
*                     DELIM1          /*                     @D21IDGN*/ 06100000
*            2 IJBDVTYP CHAR(3),      /* OBR/MDR DEVICE TYPE INFORM. */ 06150000
*              3 IJBDVOBR BIT(16),    /* OBR DEV CODE        @D21IDGN*/ 06200000
*              3 IJBDVMDR BIT(8),     /* MDR DEV CODE        @D21IDGN*/ 06250000
*            2 IJBDVCID CHAR(1),      /* CU ID FROM RDC CMD  @D21IDAP*/ 06300002
*            2 IJBDVRCC BIT(8),       /* CU TYPE CODE REAL   @DY45299*/ 06310002
*            2 IJBDVRDC BIT(8);       /* DEVICE CODE  REAL   @DY45299*/ 06320001
*%MAPEND:;                            /* END OF MAPPING      @D21IDGN*/ 06350000
*        DCL IJBDVVAL BIT(8) CONSTANT('FF'X); /* TO CHECK VALIDITY OF   06400000
*                                          SENSE-ID INFO.    @D21FDRP*/ 06450000
*%DEACTIVATE IJBDVDUM, DELIM1, DELIM2; /* DEACT INTERN. VAR. @D21FDRP*/ 06500000
*%DEACTIVATE IJBDVINT;                 /* DEACT INTERN. VAR. @D21FDRP*/ 06550000
