*% GO TO MAPXPLS ;   /*                                                 00010036
      MACRO                                                             00020036
&NAME MAPEXTR  &ID=,                                           @D51MDGL*00030036
               &MODE=,                                         @D51MDGL*00040036
               &PREFIX=,                                       @D51ODGL*00050036
               &RECID=,      FOR COMPATIBILITY WITH MAPDEVIN   @D51ODGL*00060036
               &DSECT=NO                                       @D51MDGL 00070036
.*                                                                      00080036
         LCLA  &TID                                            @D51MDGL 00090036
         LCLC  &P         INTERNAL PREFIX                      @D51ODGL 00100036
         LCLC  &G         TYPE OF GETVIS INDICATION            @D51ODGL 00110036
.*                                                                      00120036
.**************************************************************         00130036
*                                                             *@D51MDGL 00140036
.*       IBM VSE / ADVANCED FUNCTIONS                         *@D51MDGL 00150036
*        SUPERVISOR - MAPEXTR - 5686-066-06                   *@D61DDEM 00160036
.*                                                                      00170036
         AGO   .CPRIGHT                                                 00180036
.*                                                                      00190036
*        LICENSED MATERIALS - PROGRAM PROPERTY OF IBM         *@D51MDGL 00200036
*        THIS MACRO IS "RESTRICTED MATERIALS OF IBM"          *@D51MDGL 00210036
*        5686-066 (C) COPYRIGHT IBM CORP. 1990, 2002          *@D67FDMZ 00220036
*        SEE COPYRIGHT INSTRUCTIONS                           *@D51MDGL 00230036
.*                                                                      00240036
.CPRIGHT ANOP                                                           00250036
.********************************************************************** 00260036
.*                                                                      00270036
.* CHECK VALIDITY OF RECID OPERAND                             @D25IDAP 00280036
.*                                                                      00290036
.********************************************************************** 00300036
         AIF   (T'&RECID EQ 'O').CHKID                         @D51MDGL 00310036
         AIF   ('&ID' EQ 'DEVICE').CHKID                       @D51ODGL 00320036
         MNOTE 8,'RECID PARAMETER ONLY ALLOWED FOR ID=DEVICE'  @D51ODGL 00330036
         MEXIT                                                 @D51ODGL 00340036
.CHKID   ANOP                                                  @D51ODGL 00350036
.********************************************************************** 00360036
.*                                                                      00370036
.* CHECK VALIDITY OF ID OPERAND.                               @D51MDGL 00380036
.*                                                                      00390036
.********************************************************************** 00400036
         AIF   (T'&ID NE 'O').START                            @D51MDGL 00410036
         MNOTE 8,'MISSING KEYWORD ID'                          @D51MDGL 00420036
.START   ANOP                                                  @D51MDGL 00430036
.*  ID = PUB2                                                 *         00440036
.*------------------------------------------------------------*         00450036
         AIF   ('&ID' NE 'PUB2').NPUB2                         @D51MDGL 00460036
         MNOTE 4,'NO PUB2 MAPPING AVAILABLE BY MAPEXTR'        @D51MDGL 00470036
         MEXIT                                                 @D51MDGL 00480036
.NPUB2   ANOP                                                  @D51MDGL 00490036
.*  ID = BDY    BOUNDARY                                      *         00500036
.*------------------------------------------------------------*         00510036
         AIF   ('&ID' NE 'BDY').NBDY                           @D51MDGL 00520036
         AIF   (T'&MODE EQ    'O').BDY1000 MODE OMITTED        @D51MDGL 00530036
         AIF   ('&MODE' EQ    'T').BDY1000 MODE = T            @D51MDGL 00540036
         AIF   ('&MODE' EQ    'P').BDY2000 MODE = P            @D51MDGL 00550036
         AIF   ('&MODE' EQ 'SYSP').BDY3000 MODE = SYSP         @D51MDGL 00560036
         AIF   ('&MODE' EQ 'TEMP').BDY4000 MODE = TEMP         @D51MDGL 00570036
         AIF   ('&MODE' EQ 'PERM').BDY5000 MODE = PERM         @D51MDGL 00580036
         MNOTE 8,'ILLEGAL MODE FOR EXTRACT ID=BDY'             @D51MDGL 00590036
         MEXIT                                                 @D51MDGL 00600036
.BDY1000 ANOP   MODE=T                                         @D51MDGL 00610036
&NAME    MAPBDY DSECT=&DSECT                                   @KX40308 00620036
         MEXIT                                                 @D51MDGL 00630036
.*------------------------------------------------------------*         00640036
.BDY2000 ANOP   MODE=P                                         @D51MDGL 00650036
&NAME    MAPBDYVR DSECT=&DSECT                                 @KX40308 00660036
         MEXIT                                                 @D51MDGL 00670036
.*------------------------------------------------------------*         00680036
.BDY3000 ANOP   MODE=SYSP                                      @D51MDGL 00690036
*---------------------------------------------------------------------* 00700036
* MAPPING FOR SERVICE:   EXTRACT ID=BDY,MODE=SYSP              @D51IDGL 00710036
*---------------------------------------------------------------------* 00720036
&P       SETC  'MAP'                                           @D51ODGL 00730036
         AIF   (T'&PREFIX EQ 'O').BDY3010                      @D51ODGL 00740036
&P       SETC  '&PREFIX'                                       @D51ODGL 00750036
.BDY3010 ANOP                                                  @D51MDGL 00760036
         AIF ('&DSECT' EQ 'YES').BDY3025                       @D51IDGL 00770036
         AIF (T'&NAME EQ 'O').BDY3020                          @D51IDGL 00780036
&NAME    DS    0F        START OF CONTROL BLOCK                @D51IDGL 00790036
         AGO  .BDY3030                                         @D51IDGL 00800036
.BDY3020 ANOP                                                  @D51IDGL 00810036
&P.SYSP  DS    0F        START OF CONTROL BLOCK                @D51IDGL 00820036
         AGO  .BDY3030                                         @D51IDGL 00830036
.BDY3025 AIF (T'&NAME EQ 'O').BDY3028                          @D51IDGL 00840036
&NAME    DSECT           START OF DSECT                        @D51IDGL 00850036
         AGO  .BDY3030                                         @D51IDGL 00860036
.BDY3028 ANOP                                                  @D51IDGL 00870036
&P.SYSP  DSECT           START OF DSECT                        @D51IDGL 00880036
.BDY3030 ANOP                                                  @D51IDGL 00890036
&P.SUPBG DC    A(0)      1ST BYTE OF SUPERVISOR                @D51IDGL 00900036
&P.SUPND DC    A(0)      LAST BYTE OF SUPERVISOR               @D51IDGL 00910036
&P.SSBEG DC    A(0)      1ST BYTE OF SDAID AREA                @D51IDGL 00920036
&P.SSEND DC    A(0)      LAST BYTE OF SDAID AREA               @D51IDGL 00930036
&P.SVA   DC    A(0)      1ST BYTE OF LOW SVA                   @D51IDGL 00940036
&P.ESVA  DC    A(0)      LAST BYTE OF LOW SVA                  @D51IDGL 00950036
&P.SPBEG DC    A(0)      1ST BYTE OF SHARED PART. AREA         @D51IDGL 00960036
&P.SPEND DC    A(0)      LAST BYTE OF SHARED PART.AREA         @D51IDGL 00970036
&P.PRPBG DC    A(0)      1ST BYTE OF PRIV. PART. AREA          @D51IDGL 00980036
&P.PRPND DC    A(0)      LAST BYTE OF PRIV. PART. AREA         @D51IDGL 00990036
&P.VPBEG DC    A(0)      1ST BYTE OF VPOOL AREA                @D51IDGL 01000036
&P.VPEND DC    A(0)      LAST BYTE OF VPOOL AREA               @D51IDGL 01010036
&P.SVIS  DC    A(0)      1ST BYTE OF SYSTEM GETVIS AREA        @D51IDGL 01020036
&P.SVISE DC    A(0)      LAST BYTE OF SYSTEM GETVIS AREA       @D51IDGL 01030036
&P.PPBEG DC    A(0)      1ST BYTE OF PROBL.PROGR. AREA         @D51IDGL 01040036
&P.SVA3B DC    A(0)      1ST BYTE OF 31 BIT ADDRESSABLE SVA    @D51IDGL 01050036
&P.SVA3E DC    A(0)      LAST BYTE OF 31 BIT ADDR. SVA         @D51IDGL 01060036
&P.SGV3B DC    A(0)      1ST BYTE OF 31 BIT ADDR. GETVIS       @D51IDGL 01070036
&P.SGV3E DC    A(0)      LAST BYTE OF 31 BIT ADDR. GETVIS      @D51IDGL 01080036
&P.VLB3B DC    A(0)      1ST BYTE OF 31 BIT ADDR. VIRTUAL LIB. @D51IDGL 01090036
&P.VLB3E DC    A(0)      LAST BYTE OF 31 BIT ADDR. VIRTUAL LIB.@D51IDGL 01100036
&P.VSIZE DC    A(0)      TOTAL VIRTUAL STORAGE SIZE IN KBYTE   @D51IDGL 01110036
&P.SYSVS DC    A(0)      TOTAL VSIZE OF SYST.USED ADDR.SPACES  @D51IDGL 01120036
&P.SPFLL DC    A(0)      SYSTEM PFIX LIMIT IN LOW AREA (PAGES) @D51IDGL 01130036
&P.SPFCL DC    A(0)      SYS. PFIX COUNTER IN LOW AREA (PAGES) @D51IDGL 01140036
&P.SPFL3 DC    A(0)      SYS. PFIX LIMIT IN HIGH AREA  (PAGES) @D51IDGL 01150036
&P.SPFC3 DC    A(0)      SYS. PFIX COUNTER IN HIGH AREA(PAGES) @D51IDGL 01160036
         AIF (T'&NAME EQ 'O').BDY3040                          @D51IDGL 01170036
&P.SYLEN EQU   *-&NAME            LENGTH OF DATA AREA          @D51IDGL 01180036
         AGO  .BDY3050                                         @D51IDGL 01190036
.BDY3040 ANOP                                                  @D51IDGL 01200036
&P.SYLEN EQU   *-&P.SYSP          LENGTH OF DATA AREA          @D51IDGL 01210036
.BDY3050 ANOP                                                  @D51IDGL 01220036
         MEXIT                                                 @D51MDGL 01230036
.*------------------------------------------------------------*         01240036
.BDY4000 ANOP  MODE=TEMP                                       @D51MDGL 01250036
*---------------------------------------------------------------------* 01260036
* MAPPING FOR SERVICE:   EXTRACT ID=BDY,MODE=TEMP              @D51IDGL 01270036
*---------------------------------------------------------------------* 01280036
&P       SETC  'MAP'                                           @D51ODGL 01290036
         AIF   (T'&PREFIX EQ 'O').BDY4010                      @D51ODGL 01300036
&P       SETC  '&PREFIX'                                       @D51ODGL 01310036
.BDY4010 ANOP                                                  @D51MDGL 01320036
         AIF ('&DSECT' EQ 'YES').BDY4025                       @D51IDGL 01330036
         AIF (T'&NAME EQ 'O').BDY4020                          @D51IDGL 01340036
&NAME    DS    0F        START OF CONTROL BLOCK                @D51IDGL 01350036
         AGO  .BDY4030                                         @D51IDGL 01360036
.BDY4020 ANOP                                                  @D51IDGL 01370036
&P.BDYTM DS    0F        START OF CONTROL BLOCK                @D51IDGL 01380036
         AGO  .BDY4030                                         @D51IDGL 01390036
.BDY4025 AIF (T'&NAME EQ 'O').BDY4028                          @D51IDGL 01400036
&NAME    DSECT           START OF DSECT                        @D51IDGL 01410036
         AGO  .BDY4030                                         @D51IDGL 01420036
.BDY4028 ANOP                                                  @D51IDGL 01430036
&P.BDYTM DSECT           START OF DSECT                        @D51IDGL 01440036
.BDY4030 ANOP                                                  @D51IDGL 01450036
&P.PTBEG DC    A(0)   1ST ADDRESSABLE BYTE OF PARTITION        @D51IDGL 01460036
&P.PTPPE DC    A(0)   LST ADDRESSABLE BYTE OF PARTITION        @D51IDGL 01470036
&P.PTEND DC    A(0)   LST ADDR. BYTE OF PARTITION, INCL. GETVIS@D51IDGL 01480036
&P.PFXLL DC    A(0)   PFIX LIMIT (K-BYTES) OR ZERO (REAL MODE) @D51IDGL 01490036
&P.PFXCL DC    A(0)   PFIX COUNT (NUMBER OF PFIXED PAGES)      @D51IDGL 01500036
&P.PFXL3 DC    A(0)   PFIX LIMIT FOR STORAGE ABOVE 16 MB LINE  @D51IDGL 01510036
&P.PFXC3 DC    A(0)   PFIX COUNT FOR STORAGE ABOVE 16 MB LINE  @D51IDGL 01520036
         AIF (T'&NAME EQ 'O').BDY4040                          @D51IDGL 01530036
&P.BDYTL EQU   *-&NAME            LENGTH OF DATA AREA          @D51IDGL 01540036
         AGO  .BDY4050                                         @D51IDGL 01550036
.BDY4040 ANOP                                                  @D51IDGL 01560036
&P.BDYTL EQU   *-&P.BDYTM         LENGTH OF DATA AREA          @D51IDGL 01570036
.BDY4050 ANOP                                                  @D51IDGL 01580036
         MEXIT                                                 @D51MDGL 01590036
.*------------------------------------------------------------*         01600036
.BDY5000 ANOP  MODE=PERM                                       @D51MDGL 01610036
*---------------------------------------------------------------------* 01620036
* MAPPING FOR SERVICE:   EXTRACT ID=BDY,MODE=PERM              @D51IDGL 01630036
*---------------------------------------------------------------------* 01640036
&P       SETC  'MAP'                                           @D51ODGL 01650036
         AIF   (T'&PREFIX EQ 'O').BDY5010                      @D51ODGL 01660036
&P       SETC  '&PREFIX'                                       @D51ODGL 01670036
.BDY5010 ANOP                                                  @D51MDGL 01680036
         AIF ('&DSECT' EQ 'YES').BDY5025                       @D51IDGL 01690036
         AIF (T'&NAME EQ 'O').BDY5020                          @D51IDGL 01700036
&NAME    DS    0F        START OF CONTROL BLOCK                @D51IDGL 01710036
         AGO  .BDY5030                                         @D51IDGL 01720036
.BDY5020 ANOP                                                  @D51IDGL 01730036
&P.BDYPM DS    0F        START OF CONTROL BLOCK                @D51IDGL 01740036
         AGO  .BDY5030                                         @D51IDGL 01750036
.BDY5025 AIF (T'&NAME EQ 'O').BDY5028                          @D51IDGL 01760036
&NAME    DSECT           START OF DSECT                        @D51IDGL 01770036
         AGO  .BDY5030                                         @D51IDGL 01780036
.BDY5028 ANOP                                                  @D51IDGL 01790036
&P.BDYPM DSECT           START OF DSECT                        @D51IDGL 01800036
.BDY5030 ANOP                                                  @D51IDGL 01810036
&P.VPBEG DC    A(0)   1ST ADDRESSABLE BYTE OF PARTITION        @D51IDGL 01820036
&P.VPPPE DC    A(0)   LST ADDR. BYTE OF PROGRAM AREA IN PART.  @D51IDGL 01830036
&P.VPEND DC    A(0)   LST ADDR. BYTE OF PARTITION, INCL. GETVIS@D51IDGL 01840036
&P.RPBEG DC    A(0)   1ST BYTE OF REAL PARTITION               @D51IDGL 01850036
&P.RPEND DC    A(0)   LST BYTE OF REAL PARTITION               @D51IDGL 01860036
&P.PFXLL DC    A(0)   PFIX LIMIT FOR STORAGE BELOW 16 MB LINE  @D51IDGL 01870036
&P.PFXL3 DC    A(0)   PFIX LIMIT FOR STORAGE ABOVE 16 MB LINE  @D51IDGL 01880036
         AIF (T'&NAME EQ 'O').BDY5040                          @D51IDGL 01890036
&P.BDYPL EQU   *-&NAME            LENGTH OF DATA AREA          @D51IDGL 01900036
         AGO  .BDY5050                                         @D51IDGL 01910036
.BDY5040 ANOP                                                  @D51IDGL 01920036
&P.BDYPL EQU   *-&P.BDYPM         LENGTH OF DATA AREA          @D51IDGL 01930036
.BDY5050 ANOP                                                  @D51IDGL 01940036
         MEXIT                                                 @D51MDGL 01950036
.NBDY    ANOP                                                  @D51MDGL 01960036
.*------------------------------------------------------------*         01970036
.*  ID = CR     CONTROL REGISTERS                             *         01980036
.*------------------------------------------------------------*         01990036
         AIF   ('&ID' NE 'CR').NCR                             @D51MDGL 02000036
         MNOTE 4,'NO SUCH MAPPING AVAILABLE BY MAPEXTR'        @D51MDGL 02010036
         MEXIT                                                 @D51MDGL 02020036
.NCR     ANOP                                                  @D51MDGL 02030036
.*  ID = DVTY   DEVICE TYPE                                   *         02040036
.*------------------------------------------------------------*         02050036
         AIF   ('&ID' NE 'DVTY').NDVTY                         @D51MDGL 02060036
         MNOTE 4,'NO SUCH MAPPING AVAILABLE BY MAPEXTR'        @D51MDGL 02070036
         MEXIT                                                 @D51MDGL 02080036
.NDVTY   ANOP                                                  @D51MDGL 02090036
.*  ID = PUB    GET COPY OF PHYSICAL UNIT BLOCK               *         02100036
.*------------------------------------------------------------*         02110036
         AIF   ('&ID' NE 'PUB').NPUB                           @D51MDGL 02120036
         MNOTE 4,'NO SUCH MAPPING AVAILABLE BY MAPEXTR'        @D51MDGL 02130036
         MEXIT                                                 @D51MDGL 02140036
.NPUB    ANOP                                                  @D51MDGL 02150036
.*  ID = CPUID  GET CPU IDENTIFICATION                        *         02160036
.*------------------------------------------------------------*         02170036
         AIF   ('&ID' NE 'CPUID').NCPUID                       @D51MDGL 02180036
         AIF   (T'&MODE EQ 'O').CPUI000 MODE OMITTED           @D51MDGL 02190036
         AIF   ('&MODE' EQ 'REAL').CPUI100 MODE = REAL         @D51MDGL 02200036
         MNOTE 8,'ILLEGAL MODE FOR EXTRACT ID=CPUID'           @D51MDGL 02210036
         MEXIT                                                 @D51MDGL 02220036
.CPUI000 ANOP                                                  @D51ODGL 02230036
*---------------------------------------------------------------------* 02240036
* MAPPING FOR SERVICE:   EXTRACT ID=CPUID                      @D51IDGL 02250036
*---------------------------------------------------------------------* 02260036
         AGO   .CPUI001                                        @D51ODGL 02270036
.CPUI100 ANOP                                                  @D51ODGL 02280036
*---------------------------------------------------------------------* 02290036
* MAPPING FOR SERVICE:   EXTRACT ID=CPUID,MODE=REAL            @D51IDGL 02300036
*---------------------------------------------------------------------* 02310036
.CPUI001 ANOP                                                  @D51ODGL 02320036
&P       SETC  'MAP'                                           @D51ODGL 02330036
         AIF   (T'&PREFIX EQ 'O').CPUI010                      @D51ODGL 02340036
&P       SETC  '&PREFIX'                                       @D51ODGL 02350036
.CPUI010 ANOP                                                  @D51MDGL 02360036
         AIF ('&DSECT' EQ 'YES').CPUI025                       @D51IDGL 02370036
         AIF (T'&NAME EQ 'O').CPUI020                          @D51IDGL 02380036
&NAME    DS    0F        START OF CONTROL BLOCK                @D51IDGL 02390036
         AGO  .CPUI030                                         @D51IDGL 02400036
.CPUI020 ANOP                                                  @D51IDGL 02410036
&P.CPUSL DS    0F        START OF CONTROL BLOCK                @D51IDGL 02420036
         AGO  .CPUI030                                         @D51IDGL 02430036
.CPUI025 AIF (T'&NAME EQ 'O').CPUI028                          @D51IDGL 02440036
&NAME    DSECT           START OF DSECT                        @D51IDGL 02450036
         AGO  .CPUI030                                         @D51IDGL 02460036
.CPUI028 ANOP                                                  @D51IDGL 02470036
&P.CPUSL DSECT           START OF DSECT                        @D51IDGL 02480036
.CPUI030 ANOP                                                  @D51IDGL 02490036
&P.CPUID DS    0XL8   TOTAL CPUID                              @D51IDGL 02500036
&P.CPUVC DC    X'0'   CPU VERSION CODE                         @D51IDGL 02510036
&P.CPUIN DC    XL3'0' CPU IDENTIFICATION NUMBER                @D51IDGL 02520036
&P.CPUMN DC    XL2'0' CPU MODEL NUMBER                         @D51IDGL 02530036
         DC    XL2'0' RESERVED                                 @D51IDGL 02540036
&P.LOGID DC    CL2'0' SYSLOG ID OF CALLING PARTITION IN EBCDIC @D51IDGL 02550036
&P.VSEID DC    CL8' ' VSE-MACHINE ID                           @DY45557 02560036
         AIF (T'&NAME EQ 'O').CPUI040                          @D51IDGL 02570036
&P.CPUL  EQU   *-&NAME            LENGTH OF DATA AREA          @D51IDGL 02580036
         MEXIT                                                 @D51IDGL 02590036
.CPUI040 ANOP                                                  @D51IDGL 02600036
&P.CPUL  EQU   *-&P.CPUSL         LENGTH OF DATA AREA          @D51IDGL 02610036
         MEXIT                                                 @D51MDGL 02620036
.NCPUID  ANOP                                                  @D51MDGL 02630036
.*  ID = MAP    GET LIST OF PIKS RESIDING IN SPECIFIED SPACE  *         02640036
.*------------------------------------------------------------*         02650036
         AIF   ('&ID' NE 'MAP').NMAP                           @D51MDGL 02660036
         MNOTE 4,'NO SUCH MAPPING AVAILABLE BY MAPEXTR'        @D51MDGL 02670036
         MEXIT                                                 @D51MDGL 02680036
.NMAP    ANOP                                                  @D51MDGL 02690036
.*  ID = DEVICE                                               *         02700036
.*------------------------------------------------------------*         02710036
         AIF   ('&ID' NE 'DEVICE').NDEVICE                     @D51MDGL 02720036
*---------------------------------------------------------------------* 02730036
* MAPPING FOR SERVICE:   EXTRACT ID=DEVICE                     @D51IDGL 02740036
*---------------------------------------------------------------------* 02750036
&P       SETC  'IJB'                                           @D51ODGL 02760036
         AIF   (T'&PREFIX EQ 'O').DEV0010                      @D51ODGL 02770036
&P       SETC  '&PREFIX'                                       @D51ODGL 02780036
.DEV0010 ANOP                                                  @D51MDGL 02790036
         AIF ('&DSECT' EQ 'YES').DEV0025                       @D51IDGL 02800036
         AIF (T'&NAME EQ 'O').DEV0020                          @D51IDGL 02810036
&NAME    DS    0F        START OF CONTROL BLOCK                @D51IDGL 02820036
         AGO  .DEV0030                                         @D51IDGL 02830036
.DEV0020 ANOP                                                  @D51IDGL 02840036
&P.DVINF DS   0F         START OF CONTROL BLOCK                @D51IDGL 02850036
         AGO  .DEV0030                                         @D51IDGL 02860036
.DEV0025 AIF (T'&NAME EQ 'O').DEV0028                          @D51IDGL 02870036
&NAME    DSECT           START OF DSECT                        @D51IDGL 02880036
         AGO  .DEV0030                                         @D51IDGL 02890036
.DEV0028 ANOP                                                  @D51IDGL 02900036
&P.DVINF DSECT           START OF DSECT                        @D51IDGL 02910036
.DEV0030 ANOP                                                  @D51IDGL 02920036
&P.DVCUU DS    H                  CUU ADDRESS                           02930036
&P.DVDTC DS    X                  VSE DEVICE TYPE CODE                  02940036
&P.DVSNS DS    0XL7               SENSE DEVICE TYPE INFORMATION         02950036
&P.DVSNV DS    X                  VALIDITY FLAG                @D21FDRP 02960036
&P.DVVAL EQU   X'FF'              ENTRY IS VALID                        02970036
&P.DVCUN DS    XL2                CONTROL-UNIT TYPE NUMBER              02980036
&P.DVCUM DS    X                  CONROL-UNIT MODEL NUMBER              02990036
&P.DVDTN DS    XL2                DEVICE TYPE NUMBER                    03000036
&P.DVDTM DS    X                  DEVICE TYPE MODEL NUMBER              03010036
         AIF   ('&RECID' EQ 'NO').DEV0100                      @D66EDAP 03020036
&P.DVOBR DS    XL2                OBR - OS DEVICE CODE         @D21IDGN 03030036
&P.DVMDR DS    X                  MDR DEVICE CODE              @D21IDGN 03040036
&P.DVCID DS    X                  CU ID FROM RDC COMMAND       @D21IDAP 03050036
         AIF   ('&RECID' EQ 'CART').DEV0070                    @D28ADAP 03051043
         AIF   ('&RECID' EQ 'SCSI').DEV0080                    @DSCSI   03060040
         AIF   ('&RECID' EQ 'QDIO').DEV0090                    @D66EDAP 03061037
&P.DVRCC DS    X                  CONTROL UNIT TYPE CODE REAL  @DY45299 03070036
&P.DVRDC DS    X                  DEVICE TYPE CODE (OBR) REAL  @DY45299 03080036
         AGO   .DEV0100           JOIN MAIN PATH               @DSCSI   03081040
.DEV0070 ANOP                                                  @D28ADAP 03081143
* HERE INSERT  TAPE SUBSYSTEM FEATURE INFORMATION              @D28ADAP 03081244
         AGO   .DEV0100           JOIN MAIN PATH               @D28ADAP 03081343
.DEV0080 ANOP                                                  @DSCSI   03081443
.*                                                             @DSCSI   03081543
.*       SCSI SPECIFIC INFORMATION                             @DSCSI   03081643
.*                                                             @DSCSI   03081743
&P.DFCPA DS    XL2                FCP ADDRESS                  @DSCSI   03082039
&P.DWWPN DS    XL8                WORLD-WIDE PORT NUMBER       @DSCSI   03083039
&P.DLUN  DS    XL8                LUN ADDRESS                  @DSCSI   03084039
         AGO   .DEV0100           JOIN MAIN PATH               @DSCSI   03085039
.*                                                             @DSCSI   03086040
.*       QDIO SPEZIFIC INFORMATION                             @DSCSI   03087040
.*                                                             @DSCSI   03088040
.DEV0090 ANOP                                                  @D21IDGN 03100036
&P.DVSCH DS    XL2                OSAX SUBCHANNEL NUMBER       @D66EDAP 03110036
&P.DVDTY DS    X                  QDIO DEVICE QUALIFIER CODE   @D66EDAP 03120036
&P.DFEAT DS    X                  DEVICE FEATURES              @D66EDAP 03130036
&P.DPCI  EQU   X'80'              DEVICE PRESENTS PCI          @D66EDAP 03140036
&P.SIGAR EQU   X'40'              DEVICE REQUIRES SIGA READ    @D66EDAP 03150036
&P.SIGAW EQU   X'20'              DEVICE REQUIRES SIGA WRITE   @D66EDAP 03160036
&P.SIGAS EQU   X'10'              DEVICE REQUIRES SIGA SYNC    @D66EDAP 03170036
&P.DVCAD DS    XL2                CHPID ID & DEVICE ADDRESS    @D66EDAP 03180036
&P.DVEST DS    XL3                ESTABLISH COMMAND INFO       @D66EDAP 03190036
&P.DVACT DS    XL3                ACTIVATION COMMAND INFO      @D66EDAP 03200036
&P.DIQNO DS    XL1                NUMBER OF INPUT QUEUES       @D66EDAP 03210036
&P.DOQNO DS    XL1                NUMBER OF OUTPUT QUEUES      @D66EDAP 03220036
&P.DQFMT DS    XL1                QDIO QUEUE FORMAT            @D67FDMZ 03230036
&P.DFLG1 DS    XL1                ADD. (I)QDIO FEATURES        @D67FDMZ 03240036
&P.AINTF EQU   X'80'              ADAPTER INTERRUPTION FACILITY@D67FDMZ 03250036
&P.SCSC  EQU   X'40'              SET CSC COMMAND SUPPORTED    @D67FDMZ 03260036
&P.SCSCF EQU   X'20'              SET CSC FAST COMMAND SUPPORT.@D67FDMZ 03270036
&P.DCULA DS    XL1                CNTRL UNIT IMAGE ID          @D67FDMZ 03280036
.DEV0100 ANOP                                                  @D66EDAP 03290036
&P.DVLEN EQU   *-&P.DVCUU         LENGTH OF AREA                        03300036
         MEXIT                                                 @D51MDGL 03310036
.NDEVICE ANOP                                                  @D51MDGL 03320036
.*  ID = SENSE                                                *         03330036
.*------------------------------------------------------------*         03340036
         AIF   ('&ID' NE 'SENSE').NSENSE                       @D51MDGL 03350036
         MNOTE 4,'NO SUCH MAPPING AVAILABLE BY MAPEXTR'        @D51MDGL 03360036
         MEXIT                                                 @D51MDGL 03370036
.NSENSE  ANOP                                                  @D51MDGL 03380036
.*  ID = PART                         SERVICE FOR IUI ONLY !  *         03390036
.*------------------------------------------------------------*         03400036
         AIF   ('&ID' NE 'PART').NPART                         @D51MDGL 03410036
*---------------------------------------------------------------------* 03420036
* MAPPING FOR SERVICE:  EXTRACT ID=PART                        @D51MDGL 03430036
*---------------------------------------------------------------------* 03440036
&P       SETC  'MAP'                                           @D51ODGL 03450036
         AIF   (T'&PREFIX EQ 'O').PART010                      @D51ODGL 03460036
&P       SETC  '&PREFIX'                                       @D51ODGL 03470036
.PART010 ANOP                                                  @D51MDGL 03480036
         AIF ('&DSECT' EQ 'YES').PART030                       @D51MDGL 03490036
         AIF (T'&NAME EQ 'O').PART020                          @D51MDGL 03500036
&NAME    DS    0F        START OF CONTROL BLOCK                @D51MDGL 03510036
         AGO  .PART050                                         @D51MDGL 03520036
.PART020 ANOP                                                  @D51MDGL 03530036
&P.PART  DS    0F        START OF CONTROL BLOCK                @D51MDGL 03540036