*% GOTO  RECPLS;                  /* ASSEMBLER MACRO IN COMMENT@D37CDRP 00050000
         MACRO                                                          00100000
&NAME    MAPHCFRC                                                       00150000
*                                                                       00200000
*        SUPERVISOR - MAPHCFRC - 5686-066-06                   @D61CDUG 00212561
         AGO   .NOCOPY                                         @D61CDUG 00225061
.*                                                                      00237561
*********************************************************************** 00250000
*                                                                       00300000
*        LICENSED MATERIALS - PROPERTY OF IBM                  @D61CDUG 00350061
*        "RESTRICTED MATERIALS OF IBM"                         @D61CDUG 00400061
*        5686-066 (C) COPYRIGHT IBM CORP. 1980, 1994           @D61CDUG 00450061
*                                                                       00900000
*********************************************************************** 00950000
.NOCOPY  ANOP                                                  @D61CDUG 00983361
.*                                                             @D61CDUG 01016661
.* /* START OF SPECIFICATIONS ***************************************** 01050000
.*                                                                      01100000
.*01* MODULE NAME = MAPHCFRC                                            01150000
.*                                                                      01200000
.*01* MODULE TYPE = HARD COPY FILE COMMUNICATION MACRO                  01250000
.*                                                                      01300000
.*01* DESCRIPTIVE NAME = MAP FOR LAYOUT OF ONE LOGICAL HARD COPY        01350000
.*                       FILE RECORD                                    01400000
.*                                                                      01450000
.*01* NOTES = NEW MODULE FOR DOS /VSE AF 1.3                            01500000
.*              HARD COPY FILE SUPPORT                                  01550000
.*                                                                      01600000
.*01* CHANGE ACTIVITIES = AS FOLLOWS                                    01650000
.*             BLOCKED HARD COPY FILE                          @D37ADRP 01700000
.*             VSE/OCCF HOOKS                                  @D37CDRP 01750000
.* TIMESTAMP SUPPORT                                           @DTMSTGN 01800000
.* MORE PARTITION SUPPORT                                      @D51IDGN 01850000
.*A000000-999999                                               @D37ADRP 01900000
.*                                                                      01950000
.* /* END OF SPECIFICATION ******************************************** 02000000
.*                                                                      02050000
*           DSECT OF LOGICAL HCF-RECORD                                 02100000
&NAME    DSECT                                                          02150000
HCMSGLVL DS    X               0  MESSAGE LEVEL OUT OF MDB              02200061
HCMLR    EQU   X'80'              ITEM WAS WTOR                         02250061
HCMLIA   EQU   X'40'              ITEM WAS IMMEDIATE ACTION MSG         02300061
HCMLCE   EQU   X'20'              ITEM WAS CRITICAL EVENTUAL ACTION M   02350061
HCMLE    EQU   X'10'              ITEM WAS EVENTUAL ACTION MSG          02400061
HCMLI    EQU   X'08'              ITEM WAS INFORMATIONAL MSG            02450061
HCMLBC   EQU   X'04'              ITEM WAS BROADCAST MESSAGE            02500061
HCMLRSG  EQU   X'02'              RESERVED                              02550061
HCMLRSH  EQU   X'01'              RESERVED                              02600061
HCTYPE   DS    X               1  HARD COPY RECORD FLAGS                02650061
HCTYPCMD EQU   X'80'              COMMAND OR COMMAND RESPONSE           02700061
HCTYPSUP EQU   X'40'              ITEM WAS SUPPRESSED                   02750061
HCTYPROU EQU   X'20'              ITEM WAS ROUTED TO/FROM NETVIEW       02800061
HCTYPSPE EQU   X'10'              LOGGING STARTED MESSAGE               02850061
HCTYPCNT EQU   X'08'              CONTINUATION LINE                     02900061
HCTYPIPL EQU   X'04'              ITEM WAS GENERATED DURING IPL         02950061
HCTYPJOB EQU   X'02'              ITEM IS JOBCARD                       03000061
HCTYPCYC EQU   X'01'              CYCLE BIT                             03050061
HCLOGID  DS    XL2             2  PARTITION SYSLOG ID                   03328961
HCTIME   DS    XL5             4  PACKED TIME STAMP HHMMSSTH            03362661
HCDATE   DS    XL4             9  PACKED DATE STAMP YYYYDDD             03396361
HCNRLNS  DS    X              13  NUMBER OF LINES OF CURRENT MSG        03430061
HCROUT   DS    XL2            14  ROUTING CODE                          03463761
HCCRCON  DS    XL8            16  CONSOLE NAME ON WHICH CMD/REPLY WAS   03495861
*                                 ENTERED OR WHERE MSG WAS ROUTED TO    03527961
         DS    F              23  RESERVED                              03577961
HCBRECNR DS    F              27  NUMBER OF THIS RECORD, USED TO SKIP   03704661
*                                 READING RECORDS FOR FAST REDISPLAY    03733561
         DS    F              31  RESERVED                              03762661
HCMSG    DS    XL79           35  CONSOLE MSG AREA                      03791761
HCMSGBEG EQU   HCMSG+8        43  BEGIN OF ACTUAL MESSAGE               03820861
HCMINLN  EQU   HCMSG-HCMSGLVL-1   MINIMUM LENGTH - 1 OF RECORD          03847961
HCMSGLNG EQU   *-HCMSG            HARD COPY FILE MESSAGE LENGTH         03875061
HCRECLN  EQU   *-HCMSGLVL         HARD COPY FILE RECORD LENGTH          03912561
         MEND                                                           03950000
*        */                                                             04000000
*%RECPLS: ;                                                             04050000
*!********************************************************************  04100061
*!* Definition of the hard-copy-file record                          *  04150061
*!********************************************************************  04200061
*   DCL 1 HCFREC BASED ,         ! LOGICAL HARD-COPY FILE RECORD        04250061
*        2 HCHEAD,               ! RECORD HEADER                        04300061
*         3 HCMSGLVL BIT(8),     ! MESSAGE LEVEL OUT OF MDB             04350061
*          4 HCMLR    BIT(1),    ! ITEM WAS WTOR                        04400061
*          4 HCMLIA   BIT(1),    ! ITEM WAS IMMEDIATE ACTION MSG        04450061
*          4 HCMLCE   BIT(1),    ! ITEM WAS CRITICAL EVENTUAL ACTION M  04500061
*          4 HCMLE    BIT(1),    ! ITEM WAS EVENTUAL ACTION MSG         04550061
*          4 HCMLI    BIT(1),    ! ITEM WAS INFORMATIONAL MSG           04600061
*          4 HCMLBC   BIT(1),    ! ITEM WAS BROADCAST MESSAGE           04650061
*          4 HCMLRSG  BIT(1),    ! RESERVED                             04700061
*          4 HCMLRSH  BIT(1),    ! RESERVED                             04750061
*         3 HCTYPE   BIT(8),     ! HARD COPY RECORD FLAGS               04800061
*         3 HCLOGID CHAR(2),     ! SYSLOG ID FOR PARTITION              04850061
*         3 HCTIME  CHAR(5),     ! PACKED TIME STAMP HHMMSSTH           04900061
*         3 HCDATE  CHAR(4),     ! PACKED DATE STAMP YYYYDDD            04950061
*         3 HCNRLNS BIN(8),      ! NUMBER OF LINES OF CURRENT MSG       05000061
*         3 HCROUT  CHAR(2),     ! ROUTING CODE                         05050061
*         3 HCCRCON CHAR(8),     ! CONSOLE NAME ON WHICH CMD/REPLY WAS  05100061
*                                ! ENTERED OR WHERE MSG WAS ROUTED TO   05150061
*         3 *        CHAR(4),    ! RESERVED                             05200061
*         3 HCBRECNR BIN(32),    ! NUMBER OF THIS RECORD, USED TO SKIP  05250061
*                                ! READING RECORDS FOR FAST REDISPLAY   05300061
*         3 *        CHAR(4),    ! RESERVED                             05350061
*        2 HCMSG CHAR(79),       ! CONSOLE MSG AREA MAX. LENGTH         05400061
*          3 *      CHAR(8),     ! PREFIX (PART.ID, REPL.ID             05450061
*                                ! e.g. 'BG-0000 '                      05500061
*          3 HCMSGBEG CHAR(71);  ! USER MESSAGE TEXT                    05550061
*@SPACE(2);                                                             05600061
                                                                        05650061
*!********************************************************************  05700061
*!* Definition of the HCFTYPE field                                  *  05750061
*!********************************************************************  05800061
*   DCL 1  HCTYPDEF BIT(8) BASED(ADDR(HCTYPE)),                         05850061
*          4 HCTYPCMD BIT(1),     ! COMMAND OR COMMAND RESPONSE         05900061
*          4 HCTYPSUP BIT(1),     ! ITEM WAS SUPPRESSED                 05950061
*          4 HCTYPROU BIT(1),     ! ITEM WAS ROUTED TO/FROM NETVIEW     06000061
*          4 HCTYPSPE BIT(1),     ! LOGGING STARTED MESSAGE             06050061
*          4 HCTYPCNT BIT(1),     ! CONTINUATION LINE                   06100061
*          4 HCTYPIPL BIT(1),     ! ITEM WAS GENERATED DURING IPL       06150061
*          4 HCTYPJOB BIT(1),     ! ITEM IS JOBCARD                     06200061
*          4 HCTYPCYC BIT(1);     ! CYCLE BIT                           06250061
