*% GO TO PLSSYSP ; /*                                                   00050000
         MACRO                                                          00100000
&NAME    MAPSYSP   &DSECT=                                              00150000
***************************************************************         00200000
*                                                             *@D51MDGL 00250000
.*       IBM VSE / ADVANCED FUNCTIONS                         *@D51MDGL 00300000
*        SUPERVISOR - MAPSYSP - 5686-032-06-C55               *@D51MDGL 00350000
.*                                                                      00400000
         AGO   .CPRIGHT                                                 00450000
.*                                                                      00500000
*        LICENSED MATERIALS - PROGRAM PROPERTY OF IBM         *@D51MDGL 00550000
*        THIS MACRO IS "RESTRICTED MATERIALS OF IBM"          *@D51MDGL 00600000
*        5686-032 (C) COPYRIGHT IBM CORP. 1990                *@D51MDGL 00650000
*        SEE COPYRIGHT INSTRUCTIONS                           *@D51MDGL 00700000
.*                                                                      00750000
.CPRIGHT ANOP                                                           00800000
*                                                             *@D51MDGL 00850000
***************************************************************         00900000
.*                                                                      00950000
*---------------------------------------------------------------------* 01000000
* MAPPING MACRO FOR SERVICE:   EXTRACT ID=BDY,MODE=SYSP        @D51IDGL 01050000
*---------------------------------------------------------------------* 01100000
         AIF ('&DSECT' EQ 'YES').CRDS                          @D51IDGL 01150000
         AIF (T'&NAME EQ 'O').NONAM1                           @D51IDGL 01200000
&NAME    DS   0F                                               @D51IDGL 01250000
         AGO  .CODEBEG                                         @D51IDGL 01300000
.NONAM1  ANOP                                                  @D51IDGL 01350000
MAPSYSP  DS   0F                  START OF DSECT               @D51IDGL 01400000
         AGO  .CODEBEG                                         @D51IDGL 01450000
.CRDS    AIF (T'&NAME EQ 'O').NONAM                            @D51IDGL 01500000
&NAME    DSECT                                                 @D51IDGL 01550000
         AGO  .CODEBEG                                         @D51IDGL 01600000
.NONAM   ANOP                                                  @D51IDGL 01650000
MAPSYSP  DSECT                    START OF DSECT               @D51IDGL 01700000
.CODEBEG ANOP                                                  @D51IDGL 01750000
MAPSUPBG DC    A(0)               1ST BYTE OF SUPERVISOR       @D51IDGL 01800000
MAPSUPND DC    A(0)               LAST BYTE OF SUPERVISOR      @D51IDGL 01850000
MAPSSBEG DC    A(0)               1ST BYTE OF SDAID AREA       @D51IDGL 01900000
MAPSSEND DC    A(0)               LAST BYTE OF SDAID AREA      @D51IDGL 01950000
MAPSVA   DC    A(0)               1ST BYTE OF SVA              @D51IDGL 02000000
MAPESVA  DC    A(0)               LAST BYTE OF SVA             @D51IDGL 02050000
MAPSPBEG DC    A(0)               1ST BYTE OF SHARED PART. AREA@D51IDGL 02100000
MAPSPEND DC    A(0)               LAST BYTE OF SHARED PART.AREA@D51IDGL 02150000
MAPPRPBG DC    A(0)               1ST BYTE OF PRIV. PART. AREA @D51IDGL 02200000
MAPPRPND DC    A(0)               LAST BYTE OF PRIV. PART. AREA@D51IDGL 02250000
MAPVPBEG DC    A(0)               1ST BYTE OF VPOOL AREA       @D51IDGL 02300000
MAPVPEND DC    A(0)               LAST BYTE OF VPOOL AREA      @D51IDGL 02350000
MAPSVIS  DC    A(0)               1ST BYTE OF SYSTEM GETVIS AR.@D51IDGL 02400000
MAPSVISE DC    A(0)               LAST BYTE OF SYST. GETVIS AR.@D51IDGL 02450000
MAPPPBEG DC    A(0)               1ST BYTE OF PROBL.PROGR. AREA@D51IDGL 02500000
         AIF (T'&NAME EQ 'O').NONAM3                           @D51IDGL 02550000
MAPSYLEN EQU   *-&NAME            LENGTH OF DATA AREA          @D51IDGL 02600000
         AGO  .CODEEND                                         @D51IDGL 02650000
.NONAM3  ANOP                                                  @D51IDGL 02700000
MAPSYLEN EQU   *-MAPSYSP          LENGTH OF DATA AREA          @D51IDGL 02750000
.CODEEND ANOP                                                  @D51IDGL 02800000
         MEND        */                                                 02850000
*%PLSSYSP : ;                                                           02900000
*/*------------------------------------------------------------------*/ 02950000
*/* MAPPING MACRO FOR SERVICE: EXTRACT ID=BDY,MODE=SYSP      @D51IDGL*/ 03000000
*/*------------------------------------------------------------------*/ 03050000
*  DECLARE 1 MAPSYSP BASED,                                             03100000
*  2 MAPSUPBG  PTR(31),   /* 1ST BYTE OF SUPERVISOR          @D51IDGL*/ 03150000
*  2 MAPSUPND  PTR(31),   /* LAST BYTE OF SUPERVISOR         @D51IDGL*/ 03200000
*  2 MAPSSBEG  PTR(31),   /* 1ST BYTE OF SDAID AREA          @D51IDGL*/ 03250000
*  2 MAPSSEND  PTR(31),   /* LAST BYTE OF SDAID AREA         @D51IDGL*/ 03300000
*  2 MAPSVA    PTR(31),   /* 1ST BYTE OF SVA                 @D51IDGL*/ 03350000
*  2 MAPESVA   PTR(31),   /* LAST BYTE OF SVA                @D51IDGL*/ 03400000
*  2 MAPSPBEG  PTR(31),   /* 1ST BYTE OF SHARED PART. AREA   @D51IDGL*/ 03450000
*  2 MAPSPEND  PTR(31),   /* LAST BYTE OF SHARED PART.AREA   @D51IDGL*/ 03500000
*  2 MAPPRPBG  PTR(31),   /* 1ST BYTE OF PRIV. PART. AREA    @D51IDGL*/ 03550000
*  2 MAPPRPND  PTR(31),   /* LAST BYTE OF PRIV. PART. AREA   @D51IDGL*/ 03600000
*  2 MAPVPBEG  PTR(31),   /* 1ST BYTE OF VPOOL AREA          @D51IDGL*/ 03650000
*  2 MAPVPEND  PTR(31),   /* LAST BYTE OF VPOOL AREA         @D51IDGL*/ 03700000
*  2 MAPSVIS   PTR(31),   /* 1ST BYTE OF SYSTEM GETVIS AREA  @D51IDGL*/ 03750000
*  2 MAPSVISE  PTR(31),   /* LAST BYTE OF SYST. GETVIS AREA  @D51IDGL*/ 03800000
*  2 MAPPPBEG  PTR(31);   /* 1ST BYTE OF PROBLEM PROGRAM AREA@D51IDGL*/ 03850000
*                                                                       03900000
