* %GOTO MMAPSSID; /* PL/S COMMENT COVERING ASSEMBLER CODE      @D35XDGS 00050000
         MACRO                                                 @D35XDGS 00100000
&NAME    MAPSSID ,                                             @D35XDGS 00150000
.*                                                                      00200000
*********************************************************************** 00250000
*                                                                       00300000
.*       IBM VSE / ADVANCED FUNCTIONS                          @D31UDGN 00350000
*        SUPERVISOR - MAPSSID - 5686-066-06                    @DA43557 00400002
.*                                                                      00450000
         AGO   .CPRIGHT                                                 00500000
.*                                                                      00550000
*        LICENSED MATERIALS - PROGRAM PROPERTY OF IBM          @D31UDGN 00600000
*        "RESTRICTED MATERIALS OF IBM"                         @D31UDGN 00650002
*        5686-066                                              @DA43557 00700002
*        (C) COPYRIGHT IBM CORP. 1979, 2001                    @DA43557 00710002
.*                                                                      00800000
.CPRIGHT ANOP                                                           00850000
*                                                                       00900000
*********************************************************************** 00950000
.*                                                                      01000000
         AIF   ('&NAME' EQ '').NONAME                          @D35XDGS 01050000
&NAME    DSECT ,                   PROGRAM IDENTIFICATION      @D35XDGS 01100000
         AGO   .CONTIN                                         @D35XDGS 01150000
.NONAME  ANOP                                                  @D35XDGS 01200000
IJBSSID  DSECT ,                   PROGRAM IDENTIFICATION      @D35XDGS 01250000
.CONTIN  ANOP                                                  @D35XDGS 01300000
IJBSSID0 EQU   *                   BEGIN OF DSECT              @D35XDGS 01350000
IJBSSID1 DS    AL2                 PARTITION ID                @D36BDWK 01400001
IJBSNAME DS    CL4                 PROGRAM NAME (4 CHARS)      @D35XDGS 01450000
IJBSVERS DS    AL1                 VERSION NUMBER              @D35XDGS 01500000
IJBSREL  DS    AL1                 RELEASE NUMBER              @D35XDGS 01550000
IJBSMOD  DS    AL1                 MODIFICATION NUMBER         @D35XDGS 01600000
IJBSVARL DS    AL1                 LENGTH OF FLAGS             @D35XDGS 01650000
IJBSFLAG DS    0XL1                FLAGS (VARYING LENGTH)      @D35XDGS 01700000
*                                                              @D52VDGL 01703301
*  THE FOUR DIFFERENT SUPERVISOR GENERATIONS ARE INDICATED     @D52VDGL 01706601
*  BY THE FOLLOWING BIT SETTINGS:                              @D52VDGL 01709901
*    370 SUPERVISOR: IJBSF370=1  IJBSESAS=0  IJBSVMLE=0        @D52VDGL 01713201
*    ESA SUPERVISOR: IJBSF370=1  IJBSESAS=1  IJBSVMLE=0        @D52VDGL 01716501
*    VM  SUPERVISOR: IJBSF370=0  IJBSESAS=0  IJBSVMLE=1        @D52VDGL 01719801
*    VMESA SUPERV. : IJBSF370=0  IJBSESAS=1  IJBSVMLE=1        @D52VDGL 01723101
*                                                              @D52VDGL 01726401
*  ACCESS REGISTERS ARE AVAILABLE IF                           @D52VDGL 01729701
*    IJBSESAS=1 AND IJBSACCR=1                                 @D52VDGL 01733001
*                                                              @D52VDGL 01736301
*  31 BIT ADDRESSES CAN BE USED IF                             @D52VDGL 01739601
*    IJBSESAS=1                                                @D52VDGL 01742901
*                                                              @D52VDGL 01746201
IJBSFL01 DS    XL1                 FLAGBYTE 1                  @D35XDWK 01750000
IJBSF370 EQU   X'80'                370 OR ESA SUPERVISOR      @D52VDGL 01800001
IJBSFEXX EQU   X'40'                E   SUPPORT                @D35XDGS 01850000
IJBSFCKD EQU   X'20'                CKD SUPPORT                @D35XDGS 01900000
IJBSFFBA EQU   X'10'                FBA SUPPORT                @D35XDGS 01950000
IJBSFAPR EQU   X'08'                3800 SUPPORT               @D35XDGS 02000000
IJBRCHAN EQU   X'04'                RELOCATING CHANNELS        @D35XDWK 02050000
IJBSVMLE EQU   X'02'                VM OR VMESA SUPERVISOR     @D52VDGL 02100001
IJBSVMAC EQU   X'01'                RUNNING ON VM              @D37ZDWK 02150000
IJBSFL02 DS    XL1                 FLAGBYTE 2                  @D35XDWK 02200000
IJBSFAF  EQU   X'80'                AF  SUPPORT                @D35XDGS 02250000
IJBSFPAG EQU   X'40'                4 K PAGE SIZE              @DA33314 02300000
IJBSUNAT EQU   X'20'                UNATTENDED ENVIRONMENT     @D13CDGN 02350000
IJBSESAS EQU   X'10'                ESA OR VMESA SUPERVISOR    @D52VDGL 02400001
IJBSACCR EQU   X'08'                ACCESS REGS AVAILABLE      @D52VDGL 02450001
*JBS31BT EQU   X'04'                (RESERVED AGAIN)           @D52VDGL 02500001
IJBSTDAC EQU   X'02'                TURBO DISPATCHER ACTIVE    @DA43557 02525000
IJBSFL03 DS    XL1                 FLAGBYTE 3                  @DC44DWK 02550000
IJBSFSEC EQU   X'80'                SECURITY SUPPORT           @D14ZDWK 02600000
IJBSFSHR EQU   X'40'                DASD SHARING SUPPORT       @D36SDWK 02650000
IJBSFSAT EQU   X'20'                JIB REPLACED BY SAT        @D37BDWK 02700000
IJBSFL04 DS    XL1                 FLAGBYTE 4  RESERVED        @D36JDWK 02750000
IJBSLCON DS    AL2                 LIBRARY CONCAT.CHAIN LENGTH @D36JDWK 02800000
IJBSFIXL EQU   IJBSFLAG-IJBSSID0   LENGTH OF FIXED PART        @D35XDGS 02850000
IJBSSLEN EQU   *-IJBSSID0          TOTAL LENGTH OF SUP.ENTRY   @D36ZDWK 02900000
         MEND                                                  @D35XDGS 02950000
*  THE PL/S MAP IS NO MACRO, IT HAS TO BE %INCLUDED.           @D35XDGS 03000000
*  END OF PL/S COMMENT */                                  /*@D35XDGS*/ 03050000
* %MMAPSSID : ;                                            /*@D35XDGS*/ 03100000
*        DECLARE                                           /*@D35XDGS*/ 03150000
*  1     IJBSSID  BASED,        /* SUBSYSTEM IDENTIFICATION  @D35XDGS*/ 03200000
*   2    IJBSSID1 CHAR(2),      /* KEY                       @D36BDWK*/ 03250000
*   2    IJBSNAME CHAR(4),      /* PROGRAM NAME (4 CHARS)    @D35XDGS*/ 03300000
*   2    IJBSVERS FIXED(8),     /* VERSION NUMBER            @D35XDGS*/ 03350000
*   2    IJBSREL  FIXED(8),     /* RELEASE NUMBER            @D35XDGS*/ 03400000
*   2    IJBSMOD  FIXED(8),     /* MODIFICATION NUMBER       @D35XDGS*/ 03450000
*   2    IJBSVARL PTR(8),       /* LENGTH OF FLAGS           @D35XDGS*/ 03500000
*   2    IJBSFL01 BIT(16),      /* FLAGS (VARYING LENGTH)    @DC44DWK*/ 03550000
*    3   IJBSF370 BIT(1),       /*  370 SUPPORT              @D35XDGS*/ 03600000
*    3   IJBSFEXX BIT(1),       /*  E   SUPPORT              @D35XDGS*/ 03650000
*    3   IJBSFCKD BIT(1),       /*  CKD SUPPORT              @D35XDGS*/ 03700000
*    3   IJBSFFBA BIT(1),       /*  FBA SUPPORT              @D35XDGS*/ 03750000
*    3   IJBSFAPR BIT(1),       /*  3800 SUPPORT             @D35XDGS*/ 03800000
*    3   IJBRCHAN BIT(1),       /*  RELOCATING CHANNELS      @D35XDWK*/ 03850000
*    3   IJBSVMLE BIT(1),       /*  VMLE SUPPORT GENERATED   @D37ZDWK*/ 03900000
*    3   IJBSVMAC BIT(1),       /*  RUNNING ON VM            @D37ZDWK*/ 03950000
*    3   IJBSFAF  BIT(1),       /*  AF  SUPPORT              @D35XDGS*/ 04000000
*    3   IJBSFPAG BIT(1),       /*  4 K PAGE SIZE            @DA33314*/ 04050000
*    3   IJBSUNAT BIT(1),       /*  UNATTENDED INIT. SUPERV. @D13CDGN*/ 04100000
*    3   IJBSESAS BIT(1),       /*  ESA OR VMESA SUPERVISOR  @ESAFLGL*/ 04150000
*    3   IJBSACCR BIT(1),       /*  ACCESS REGS AVAILABLE    @ESAFLGL*/ 04200000
*    3   *        BIT(1),       /*  RESERVED AGAIN           @D51GDGL*/ 04250001
*    3   IJBSTDAC BIT(1),       /*  TURBO DISPATCHER ACTIVE  @DA43557*/ 04283300
*    3   *        BIT(1),       /*  RESERVED                 @DA43557*/ 04316600
*   2    IJBSFL03 BIT(8),       /*  FLAGBYTE 3               @DC44DWK*/ 04350000
*    3   IJBSFSEC BIT(1),       /*  SECURITY SUPPORT         @D14ZDWK*/ 04400000
*    3   IJBSFSHR BIT(1),       /*  DASD SHARING SUPPORT     @D36SDWK*/ 04450000
*    3   IJBSFSAT BIT(1),       /*  JIB REPLACED BY SAT      @D37BDWK*/ 04500000
*    3   *        BIT(5),       /*  RESERVED                 @D37FDWK*/ 04550000
*   2    IJBSFL04 BIT(8),       /*  FLAGBYTE 4  RESERVED     @D36JDWK*/ 04600000
*   2    IJBSLCON FIXED(15);    /*  LIBR.CONCAT.CHAIN LENGTH @DA33314*/ 04650000
*                                                          /*@D35XDGS*/ 04700000
