*% GO TO MODCPLS ;   /*                                                 00050000
      MACRO                                                             00100000
&NAME     MODCTB  &ID=,&AREA=,&LEN=,&DISP=,&SEL=,&SEP=,&PID=,&MFG=      00150000
.*                                                                      00200000
         LCLA  &TID,&TMFG,&TOFF,&TAR,&TSEL,&TPID,&TSEP,&TFLAG           00250000
         LCLA  &TLEN,&TDISP                                             00300000
         LCLC  &TOPE,&TADDR,&BADDR                                      00350000
.*                                                                      00400000
.**************************************************************         00450061
*                                                             *@D51MDGL 00500000
.*       IBM VSE / ADVANCED FUNCTIONS                         *@D51MDGL 00550000
*        SUPERVISOR - MODCTB  - 5686-066-06-15G               *@D61DDEM 00600061
.*                                                                      00650000
         AGO   .CPRIGHT                                                 00700000
.*                                                                      00750000
*        LICENSED MATERIALS - PROGRAM PROPERTY OF IBM         *@D51MDGL 00800000
*        THIS MACRO IS "RESTRICTED MATERIALS OF IBM"          *@D51MDGL 00850000
*        5686-066 (C) COPYRIGHT IBM CORP. 1979, 1995          *@D61DDEM 00900061
*        SEE COPYRIGHT INSTRUCTIONS                           *@D51MDGL 00950000
.*                                                                      01000000
.CPRIGHT ANOP                                                           01050000
*                                                             *@D51MDGL 01100000
.**************************************************************         01150061
.*                                                                      01200000
.**** START OF SPECIFICATIONS ***************************************** 01250000
.*                                                                      01300000
.*01* MODULE-TYPE = MACRO                                               01350000
.*                                                                      01400000
.*01* DESCRIPTIVE NAME = MODIFY PUB CONTROL BLOCKS             @D61DDEM 01450061
.*  COPYRIGHT        =  NONE                                            01500000
.*  STATUS           =  NEW MACRO - FIRST RELEASE 34.0                  01550000
.*  FUNCTION         =  MACRO CHECKS USER GIVEN PARAMETERS TO           01600061
.*                      MODIFY A PUB CONTROL BLOCK VIA SVC 98. @D61DDEM 01650061
.*                      A PARAMETER LIST IS BUILT.                      01700061
.*  NOTES            =                                                  01750000
.*  DEPENDENCIES     =                                                  01800000
.*  RESTRICTIONS     =                                                  01850000
.*  REGISTER CONVENT.=  REGISTER 1 USED BY MACRO AS POINTER TO          01900000
.*                      PARAMETER LIST FOR SVC 98                       01950000
.*                      REGISTER 15 USED AS RETURNCODE REGISTER         02000000
.*  PATCH LABEL      =  NONE                                            02050000
.*  MACRO TYPE       =  BILINGUAL                                       02100000
.*  PROCESSOR        =  ASM / PLS2                                      02150000
.*  MACRO SIZE       =                                                  02200000
.*  ATTRIBUTES       =                                                  02250000
.*  ENTRY POINT      =  MODCTB                                          02300000
.*  PURPOSE          =  SEE FUNCTION                                    02350000
.*  LINKAGE          =                                                  02400000
.*  CALLER           =                                                  02450000
.*  INPUT            =  1. ASM :                                        02500000
.* (CALLING SEQUENCE)    LABEL   MODCTB   ID=<PUB2|MNTLIST     @D61DDGL 02533361
.*                                        |MNTNEXT|ATLSETUP>   @D61DDEM 02566661
.*                                        AREA=(NAME1 | (R1) ),         02600000
.*                                        LEN=(NAME2 | (R2) ),          02650000
.*                                        MFG=(NAME6 | (R6) )  (OPT)    02666661
.*  PARAMETERS NOT FOR ID=ATLSETUP, BUT ALL OTHERS:            @D61DDEM 02683261
.*                                        DISP=(NAME3 | (R3) ), (OPT)   02700000
.*                                        SEL=(NAME4 | (R4) ), OR       02750000
.*                                        SEP=(NAME4 | (R4) ),          02800000
.*                                        PID=(NAME5 | (R5) ), (OPT)    02850000
.*                      2. PLS :                                        02950000
.*                      ?LABEL:  MODCTB   ID<(PUB2)|(MNTLIST)|(MNTNEXT) 02983361
.*                                        |(ATLSETUP)>         @D61DDEM 03016661
.*                                        AREA((NAME1) | ((R1)) )       03050000
.*                                        LEN((NAME2) | ((R2)) )        03100000
.*                                        DISP((NAME2) | ((R2)) )       03150000
.*                                        SEL((NAME4) | ((R4)) ) OR     03200000
.*                                        SEP((NAME4) | ((R4)) )        03250000
.*                                        PID((NAME5) | ((R5)) ) (OPT)  03300000
.*                                        MFG((NAME6) | ((R6)) );(OPT)  03350000
.*                      OPERANDS :                                      03400000
.*                      ID = INDICATES REQUESTED INFORMATION            03450000
.*                      AREA = ADDR WHERE INFORMATION IS TO RETRIEVE    03500000
.*                      LEN  = LENGTH OF AREA                           03550000
.*                      DISP = DISPLACEMENT WITHIN PUB2 TABLE           03600000
.*                             (DEFAULT IS ZERO)                        03650000
.*                      SEL  = ADDR OF HALFWORD CONTAINING LOGICAL UNIT 03700000
.*                      SEP  = ADDR OF HALFWORD CONTAINING PHYSICAL     03750000
.*                             UNIT ('CUU')                             03800000
.*                      PID  = ADDR OF HALFWORD CONTAINING THE PIK      03850000
.*                             (DEFAULT : PIK OF PART. OF ISSUING PROG) 03900000
.*                      MFG  = ADDR OF 16 BYTE WORKAREA WHERE THE       03950000
.*                             PARMLIST FOR SVC IS TO BE STORED.        04000000
.*                                                                      04050000
.*  OUTPUT           =  PARMLIST OF FOLLOWING FORMAT GENERATED :        04100000
.*                                                                      04150000
.*           REG1 --> 0 -------------------------------------           04200000
.*                      |  ID    |  FLAG  |   RESERVED      |           04250000
.*                    4 -------------------------------------           04300000
.*                      |    LENGTH       |   DISPLACEMENT  |           04350000
.*                    8 -------------------------------------           04400000
.*                      |         ADDR (AREA)               |           04450000
.*                   12 -------------------------------------           04500000
.*                      |         ADDR ((SEL) | (SEP))      |           04550000
.*                   16 -------------------------------------           04600000
.*                      |         ADDR (PIK)                |           04650000
.*                      -------------------------------------           04700000
.*                                                                      04750000
.*  EXIT NORMAL      =  COMPILER :                                      04800000
.*                      PARMLIST GENERATED                              04850000
.*                      EXECUTION:                                      04900000
.*                      REGISTER 15  =  0                               04950000
.*  EXIT ERROR       =  COMPILER :                                      05000000
.*                      MNOTES INDICATING THE ERROR                     05050000
.*                      EXECUTION:                                      05100000
.*                      REGISTER 15  =  4    INVALID PIK SPECIFIED      05150000
.*                                      8    LOGICAL OR PHYSICAL UNIT   05200000
.*                                           NOT SUPPORTED              05250000
.*                                     12    LOGICAL UNIT NOT ASSIGNED  05300000
.*                                     16    INVALID LENGTH OR DISP-    05350000
.*                                           SPECIFICATION              05400000
.*  EXTERNAL REFEREN.=  NONE                                            05450000
.*  ROUTINES         =  SVC 98                                          05500000
.*  DATA AREAS       =  NONE                                            05550000
.*  CONTROL BLOCKS   =  NONE                                            05600000
.*  TABLES           =  OWN TABLE GENERATED                             05650000
.*  MACROS           =  NONE                                            05700000
.*  CHANGE ACTIVITIES=  NEW MACRO   FIRST RELEASE 34           @D34YDWK 05750000
.*  MODIFIED REGISTER=  REGISTER 1 , 15                                 05800000
.*                      ID=ATLSETUP ADDED                      @D61DDEM 05850061
.*                                                                      05900000
.*                                                                      05950000
.** END OF SPECICATIONS *********************************************** 06000000
.*                                                                      06050000
.********************************************************************** 06100000
.*                                                                      06150000
.* CHECK FOR NEEDED OPERANDS,IF NOT SUPPLIED SUPPRESS MACRO-GENERATION  06200000
.*                                                                      06250000
.********************************************************************** 06300000
         AIF   (T'&ID NE 'O').CHAREA                                    06350000
&TOPE    SETC  'ID'                                                     06400000
.NOTE1   MNOTE 8,'&TOPE-OPERAND NOT GIVEN,GENERATION SUPPRESSED'        06450000
         MEXIT                                                          06500000
.CHAREA  ANOP                                                           06550000
         AIF   (T'&AREA NE 'O').CHLEN                                   06600000
&TOPE    SETC  'AREA'                                                   06650000
         AGO   .NOTE1                                                   06700000
.CHLEN   ANOP                                                           06750000
         AIF   (T'&LEN NE 'O').CHSEL                                    06800000
&TOPE    SETC  'LEN'                                                    06850000
         AGO   .NOTE1                                                   06900000
.CHSEL   ANOP                                                           06950000
         AIF   ('&ID' EQ 'ATLSETUP').CHID4                              06975061
         AIF   (T'&SEL NE 'O').CHSEP                                    07000000
         AIF   (T'&SEP NE 'O').CHID1                                    07050000
&TOPE    SETC  'SEL- OR'.' SEP'                                         07100000
         AGO   .NOTE1                                                   07150000
.CHSEP   ANOP                                                           07200000
         AIF   (T'&SEP EQ 'O').CHID1                                    07250000
&TOPE    SETC  'SEL- AND'.' SEP-'                                       07300000
.NOTE2   MNOTE 8,'&TOPE OPERAND GIVEN, GENERATION SUPPRESSED'           07350000
         MEXIT                                                          07400000
.********************************************************************** 07450000
.*                                                                      07500000
.* CHECK VALIDITY OF GIVEN ID-OPERAND AND SET ID-FLAG                   07550000
.*                                                                      07600000
.********************************************************************** 07650000
.CHID1   ANOP                                                           07700000
         AIF   ('&ID' NE 'PUB2').CHID2                                  07750061
&TID     SETA  240                                                      07800000
         AGO   .CHMFG                                                   07807161
.CHID2   AIF   ('&ID' NE 'MNTLIST').CHID3                               07814261
&TID     SETA  241                                                      07821361
         AGO   .CHMFG                                                   07828461
.CHID3   AIF   ('&ID' NE 'MNTNEXT').CHID4                               07835561
&TID     SETA  242                                                      07842661
         AGO   .CHMFG                                                   07850000
.CHID4   AIF   ('&ID' NE 'ATLSETUP').CHID0                     @D61DDEM 07862561
&TID     SETA  243                                             @D61DDEM 07875061
&TOPE    SETC  'SEL- OR'.' SEP-'                               @D61DDEM 07877561
         AIF   (T'&SEL NE 'O' OR T'&SEP NE 'O').NOTE2          @D61DDEM 07880061
&TOPE    SETC  'PID- OR'.'DISP'                                @D61DDEM 07882561
         AIF   (T'&PID NE 'O' OR T'&DISP NE 'O').NOTE2         @D61DDEM 07885061
         AGO   .CHMFG                                          @D61DDEM 07887561
.CHID0   ANOP                                                           07900000
         MNOTE 8,'UNKNOWN ID-OPERAND GIVEN,GENERATION SUPPRESSED'       07950000
         MEXIT                                                          08000000
.********************************************************************** 08050000
.*                                                                      08100000
.* CHECK IF USERAREA FOR PARAMETER-LIST GIVEN  (MFG=OPERAND)            08150000
.*                                                                      08200000
.********************************************************************** 08250000
.CHMFG   ANOP                                                           08300000
         AIF   (T'&MFG EQ 'O').NOMFG       NO MFG-PARM,BUILD INLINECODE 08350000
&NAME    DS    0H                          MACRO ALIGNMENT              08400000
         AIF   ('&MFG'(1,1) EQ '(').RMFG   REGISTER FORMAT              08450000
&TADDR   SETC  '+'.'&MFG'                  USERAREA ADDRESSED BY VAR.   08500000
         MVC   &MFG.(20),MODC&SYSNDX       COPY PARMLIST TO USERAREA    08550000
&TMFG    SETA  1                                                        08600000
         AGO   .HLEN                                                    08650000
.RMFG    ANOP                                                           08700000
         AIF   ('&MFG' EQ '(1)').R1MFG     REGISTER  GIVEN              08750000
&TADDR   SETC  '&MFG'                      USERAREA ADDRESSED BY REG    08800000
         MVC   0(20,&MFG(1)),MODC&SYSNDX   COPY PARMLIST TO USERAREA    08850000
&TMFG    SETA  2                                                        08900000
         AGO   .HLEN                                                    08950000
.R1MFG   ANOP                                                           09000000
&TADDR   SETC  '&MFG'                      USERAREA ADDRESSED BY REG1   09050000
         MVC   0(20,&MFG(1)),MODC&SYSNDX   COPY PARMLIST TO USERAREA    09100000
&TMFG    SETA  3                                                        09150000
         AGO   .HLEN                                                    09200000
.NOMFG   ANOP                                                           09250000
&NAME    CNOP  0,4                         MACRO ALIGNMENT              09300000
&TADDR   SETC  '+MODC'.'&SYSNDX'                                        09350000
&TMFG    SETA  0                                                        09400000
.********************************************************************** 09450000
.*                                                                      09500000
.* CHECK AND SET LEN PARAMETER                                          09550000
.*                                                                      09600000
.********************************************************************** 09650000
.HLEN    ANOP                                                           09700000
&TOFF    SETA  4                                                        09750000
         AIF   ('&LEN'(1,1) EQ '(').RLEN   REGISTER FORM                09800000
&TLEN    SETA  1                           INDICATE VARIABLE PARM       09850000
         AGO   .HDISP                                                   09900000
.RLEN    ANOP                                                           09950000
         STH   &LEN(1),&TOFF.&TADDR        STORE LENGTH                 10000000
.********************************************************************** 10050000
.*                                                                      10100000
.* CHECK AND SET DISP PARAMETER                                         10150000
.*                                                                      10200000
.********************************************************************** 10250000
.HDISP   ANOP                                                           10300000
&TOFF    SETA  6                                                        10350000
         AIF   (T'&DISP NE 'O').CDISP      REGISTER FORM                10400000
&TDISP   SETA  0                           INDICATE DISP OMITTED        10450000
         AGO   .HAREA                                                   10500000
.CDISP   ANOP                                                           10550000
         AIF   ('&DISP'(1,1) EQ '(').RDISP REGISTER FORM                10600000
&TDISP   SETA  1                           INDICATE VARIABLE PARM       10650000
         AGO   .HAREA                                                   10700000
.RDISP   ANOP                                                           10750000
         STH   &DISP(1),&TOFF.&TADDR       STORE DISPLACEMENT           10800000
.********************************************************************** 10850000
.*                                                                      10900000
.* EVALUATE AND SET AREA PARAMETER                                      10950000
.*                                                                      11000000
.********************************************************************** 11050000
.HAREA   ANOP                                                           11100000
&TOFF    SETA  8                                                        11150000
         AIF   ('&AREA'(1,1) EQ '(').RAR   REGISTER FORM                11200000
&TAR     SETA  1                           INDICATE VARIABLE PARM       11250000
         AGO   .HSEL                                                    11300000
.RAR     ANOP                                                           11350000
         ST    &AREA(1),&TOFF.&TADDR       STORE AREA ADDRESS           11400000
.********************************************************************** 11450000
.*                                                                      11500000
.* EVALUATE AND SET SEL PARAMETER                                       11550000
.*                                                                      11600000
.********************************************************************** 11650000
.HSEL    ANOP                                                           11700000
&TOFF    SETA  12                                                       11750000
         AIF   (T'&SEL EQ 'O').HSEP                                     11800000
&TFLAG   SETA  0                           SET FLAG FOR LOGICAL UNIT    11850000
         AIF   ('&SEL'(1,1) EQ '(').RSEL   REGISTER FORM                11900000
&TSEL    SETA  1                           INDICATE VARIABLE PARM       11950000
         AGO   .HPID                                                    12000000
.RSEL    ANOP                                                           12050000
         ST    &SEL(1),&TOFF.&TADDR        STORE SEL-ADDRESS            12100000
         AGO   .HPID                       GO CHECK PID OPERAND         12150000
.********************************************************************** 12200000
.*                                                                      12250000
.* EVALUATE AND SET SEP PARAMETER                                       12300000
.*                                                                      12350000
.********************************************************************** 12400000
.HSEP    ANOP                                                           12450000
         AIF   (T'&SEP EQ 'O').HPID                            @D61DDEM 12475061
&TFLAG   SETA  1                           INDICATE PHYSICAL UNIT       12500000
         AIF   ('&SEP'(1,1) EQ '(').RSEP   REGISTER FORM                12550000
&TSEP    SETA  1                           INDICATE VARIABLE PARM       12600000
         AGO   .HPID                                                    12650000
.RSEP    ANOP                                                           12700000
         ST    &SEP(1),&TOFF.&TADDR        STORE SEP-ADDRESS            12750000
&TSEP    SETA  2                           INDICATE REG.NOTAT.          12800000
.********************************************************************** 12850000
.*                                                                      12900000
.* EVALUATE AND SET PID PARAMETER                                       12950000
.*                                                                      13000000
.********************************************************************** 13050000
.HPID    ANOP                                                           13100000
&TOFF    SETA  16                                                       13150000
         AIF   (T'&PID EQ 'O').GENBR                                    13200000
         AIF   (&TSEP EQ 0).GPID           SEL OPERAND GIVEN            13250000
.NOTE3   MNOTE 1,'PID-OPERAND IGNORED WHILE SEP SPECIFIED'              13300000
         AGO   .GENBR                      NO SKIP PID PROCESSING       13350000
.GPID    ANOP                                                           13400000
         AIF   ('&PID'(1,1) EQ '(').RPID   REGISTER FORM                13450000
&TPID    SETA  1                           INDICATE VARIABLE PARM       13500000
         AGO   .GENBR                                                   13550000
.RPID    ANOP                                                           13600000
         ST    &PID(1),&TOFF.&TADDR        STORE ADDRESS OF PIK         13650000
.********************************************************************** 13700000
.*                                                                      13750000
.* GENERATE BRANCH INSTRUCTION                                          13800000
.*                                                                      13850000
.********************************************************************** 13900000
.GENBR   ANOP                                                           13950000
&BADDR   SETC  'MODC'.'&SYSNDX'.'+20'                                   14000000
         AIF   (&TMFG NE 0).BR1                                         14050000
         BAL   1,&BADDR                    LOAD PARMLIST ADDR & BRANCH  14100000
         AGO   .GENCON                                                  14150000
.BR1     ANOP                                                           14200000
         AIF   (&TMFG NE 1).BR2                                         14250000
         LA    1,&MFG                      LOAD PARMLIST ADDR.          14300000
         AGO   .BR3                                                     14350000
.BR2     ANOP                                                           14400000
         AIF   (&TMFG NE 2).BR3                                         14450000
         LR    1,&MFG(1)                   LOAD PARMLIST ADDR.          14500000
.BR3     B     &BADDR                      BRANCH AROUND PARMLIST       14550000
.********************************************************************** 14600000
.*                                                                      14650000
.* GENERATE CONSTANTS                                                   14700000
.*                                                                      14750000
.********************************************************************** 14800000
.GENCON  ANOP                                                           14850000
MODC&SYSNDX DC    AL1(&TID)                ID-FLAG                      14900000
         DC    AL1(&TFLAG)                 FLAG LOGICAL | PHYSICAL UNIT 14950000
         DC    AL2(0)                      RESERVED                     15000000
         AIF   (&TLEN EQ 1).GC10                                        15050000
         DC    AL2(0)                      LENGTH OF AREA               15100000
         AGO   .GC20                                                    15150000
.GC10    ANOP                                                           15200000
         DC    AL2(&LEN)                   LENGTH OF AREA               15250000
.GC20    ANOP                                                           15300000
         AIF   (&TDISP EQ 1).GC21                                       15350000
         DC    AL2(0)                      DISPLACEMENT IN PUB2 TABLE   15400000
         AGO   .GC30                                                    15450000
.GC21    ANOP                                                           15500000
         DC    AL2(&DISP)                  DISPLACEMENT IN PUB2 TABLE   15550000
.GC30    ANOP                                                           15600000
         AIF   (&TAR EQ 1).GC31                                         15650000
         DC    AL4(0)                      AREA ADDRESS                 15700000
         AGO   .GC40                                                    15750000
.GC31    ANOP                                                           15800000
         DC    AL4(&AREA)                  AREA ADDRESS                 15850000
.GC40    ANOP                                                           15900000
         AIF   (T'&SEL EQ 'O').GC41        IF PHYSICAL UNIT BRANCH      15950000
         AIF   (&TSEL EQ 1).GC42                                        16000000
         DC    AL4(0)                      LOGICAL UNIT ADDRESS         16050000
         AGO   .GC50                                                    16100000
.GC42    ANOP                                                           16150000
         DC    AL4(&SEL)                   LOGICAL UNIT ADDRESS         16200000
         AGO   .GC50                                                    16250000
.GC41    ANOP                                                           16300000
         AIF   (&TSEP EQ 1).GC43                                        16350000
         DC    AL4(0)                      PHYSICAL UNIT ADDRESS        16400000
         AGO   .GC50                                                    16450000
.GC43    ANOP                                                           16500000
         DC    AL4(&SEP)                   PHYSICAL UNIT ADDRESS        16550000
.GC50    ANOP                                                           16600000
         AIF   (&TPID EQ 1).GC51                                        16650000
         DC    AL4(0)                      POINTER TO PIK               16700000
         AGO   .CLREGF                                                  16750000
.GC51    ANOP                                                           16800000
         DC    AL4(&PID)                   POINTER TO PIK               16850000
.CLREGF  ANOP                                                           16900000
         SR    15,15                       CLEAR RETURN CODE REGISTER   16950000
         SVC   98                          CALL SVC ROUTINE             17000000
         MEND                                                        */ 17050000
*%MODCPLS : ;                                                           17100000
*%MODCTB:  MACRO  KEYS(ID,AREA,LEN,DISP,SEL,SEP,PID,MFG);               17150000
* /*******************************************************************/ 17200000
* /*                                                                 */ 17250000
* /*  LIST MACRO INVOCATION IN SOURCE                       @D61DDEM */ 17253561
* /*                                                                 */ 17257061
* /*******************************************************************/ 17260561
*    ANS ('/* '||MACLABEL||' '||MACNAME||' '||MACLIST||' '||MACKEYS||   17264061
*         '*/') COL(MACLMAR);                                           17267561
* ANS ('/*                                                  */')        17271061
* COL(MACLMAR);                                                         17274561