*%/*                                                                    00002700
         MACRO                                                          00050000
&NAME    MODESET  &KEY=,&MODE=,&REG=,&MF=,                             X00100001
               &EXTKEY=,&SAVEKEY=,&KEYADDR=,&WORKREG=,&RELATED=,       X00150000
               &KEYREG=                                                 00190001
.*                                                             @D61BDVB 00230001
         GBLC  &SYSSPLV                                        @D61BDVB 00270001
         LCLA  &PSWKEY                                                  00310001
.* THE FOLLOWING ARE THE LOCAL SET SYMBOLS FOR THE 4 BYTE PARM LIST     00350000
         LCLB  &B0,&B1,&B2,&B3,&B4,&B5,&B6,&B7                          00400000
         LCLB  &B8,&B9,&B10,&B11,&B12,&B13,&B14,&B15                    00450000
         LCLB  &B16,&B17,&B18,&B19,&B20,&B21,&B22,&B23                  00500000
         LCLB  &B24,&B25,&B26,&B27,&B28,&B29,&B30,&B31                  00550000
.* THE FOLLOWING ARE USED BY THE VSE EXTENSION                 @D61BDVB 00551801
         LCLA  &NUMBER                                         @D61BDVB 00553601
         LCLC  &UREG                                           @D61BDVB 00555401
         LCLC  &EKEY                                           @D61BDVB 00557201
         LCLC  &SKEYREG                                        @D61BDVB 00559001
         AGO   .SKIP                                           @D61BDVB 00560801
******************************************************                  00562601
*                                                    *                  00564401
*   LICENSED MATERIALS - PROPERTY OF IBM             *                  00566201
*   THIS MACRO IS "RESTRICTED MATERIALS OF IBM"      *                  00568001
*   5686-032 (C) COPYRIGHT IBM CORP. 1993            *                  00569801
*   SEE COPYRIGHT INSTRUCTIONS                       *                  00571601
*                                                    *                  00573401
******************************************************                  00575201
.SKIP    ANOP                                                  @D61BDVB 00577001
.*------------------------------------------------------------*@D61BDVB 00578801
.*       IBM DISK OPERATING SYSTEM                                      00580601
.*       SUPERVISOR - MODESET - 5686-007-06-C44                         00582401
.*------------------------------------------------------------*@D61BDVB 00584201
.**** START OF SPECIFICATIONS ***************************************** 00586001
.*                                                                    * 00587801
.*01* MACRO NAME = MODESET                                         *    00589601
.*                                                                    * 00591401
.*01* DESCRIPTIVE NAME = PERFORMS FAST KEY / MODE SWITCH              * 00593201
.*                                                                    * 00595001
.*01* FUNCTION   = PERFORMS PSWKEY AND/OR MODE SWITCH                 * 00596801
.*                 (1) AS LINE CODE - REQUIRING (SEMI-)PRIVILEGD STATE* 00598601
.*                 (2) AS SVC - REQUESTING SUPERVISOR SERVICE         * 00600401
.*                                                                    * 00602201
.*01* NOTES =      MVS COMPATIBLE MACRO (IMPORTED FROM MVS            * 00604001
.*                 FOR VSE/ESA 1.4.0) REQUIRES SPLEVEL SET=4          * 00605801
.*                                                                    * 00607601
.*                 PREVIOUS VSE MACRO EXPANSION IS FORCED VIA         * 00609401
.*                 SPLEVEL SET=N , N<4                                * 00611201
.*                                                                    * 00613001
.*02* PROCESSOR = ASSEMBLER-H - PL/AS (BILINGUAL)                     * 00614801
.*                                                                    * 00616601
.*01* MACRO PARAMETERS =                                              * 00618401
.*    (1) IN-LINE CODE GENERATION                                     * 00620201
.*        EXTKEY     =   ZERO|TCB                                     * 00622001
.*       |KEYADDR    =   ADDRESS OF ONE BYTE-FIELD, CONTAINING THE KEY* 00623801
.*       |KEYREG     =   REGISTER CONTAINING THE KEY                  * 00625601
.*                       (ONE OF THIS PARAMETERS IS REQUIRED)         * 00627401
.*        SAVEKEY    =   ADDRES OR REGISTER WHERE CURRENT KEY SHOULD  * 00629201
.*                       BE SAVED                                     * 00631001
.*        WORKREG    =   REGISTER TO BE USED AS WORKREG               * 00632801
.*        RELATED    =   ANY VALUE (FOR DOCUMENTATION ONLY)           * 00634601
.*    (2) SVC GENERATION                                              * 00636401
.*        KEY        =   ZERO|NZERO|USER                              * 00638201
.*        MODE       =   PROB|SUP                                     * 00640001
.*                       (AT LEAST ONE OF THE PARAMETERS MUST BE      * 00641801
.*                        SPECIFIED FOR MF=L OR WITHOUT MF)           * 00643601
.*        RELATED    =   ANY VALUE (FOR DOCUMENTATION ONLY)           * 00645401
.*        MF         =   L|(E,LIST)                                   * 00647201
.*                       LIST OR EXECUTE FORMAT                       * 00649001
.*01* MACROS = NONE                                                   * 00650801
.*                                                                    * 00652601
.*01* STATUS = VSE/ESA 2.1.0  (Y-4)  - VSE COMPONENT. SIF             * 00654401
.*                        93-10-24 MVS COMPATIBLE MODESET             * 00656201
.*--------------------------------------------------------------------* 00658001
.*01*RESTRICTIONS FOR PREVIOUS VSE/ESA                                * 00659801
.*        LABEL   MODESET  EXTKEY=N/(REG)                             * 00661601
.*                         WORKREG=(REG)                              * 00663401
.*                         SAVEKEY=OLD-KEY-ADDR/(REG)                 * 00665201
.*        OR                                                          * 00667001
.*                                                                    * 00668801
.*        LABEL   MODESET  KEY=ZERO/USER                              * 00670601
.*                                                                    * 00672401
.*        PARAMETERS:                                                 * 00674201
.*        EXTKEY:          N IS NEW PSW KEY IF EXTKEY=N OR            * 00676001
.*                         THE REGISTER R CONTAINS THE NEW PSW KEY IF * 00677801
.*                         EXTKEY=(R)                                 * 00679601
.*        WORKREG:         REGISTER USED FOR SAVING REGISTER 2        * 00681401
.*        SAVEKEY:         SAVES OLD PSW KEY (ADDRESS OR REGISTER)    * 00683201
.*                                                                    * 00685001
.*        IF THE KEY PARAMETER IS SET, ALL OTHER PARAMETERS MUST BE   * 00686801
.*        OMITTED                                                     * 00688601
.*                                                                    * 00690401
.*        KEY:             =ZERO MEANS, THAT THE USER WANTS TO HAVE   * 00692201
.*                               PSW KEY 0                            * 00694001
.*                         =USER MEANS, THAT THE CALLER HAS PSW KEY 0 * 00695801
.*                               NOW AND WANTS TO HAVE HIS OLD KEY    * 00697601
.*                               AGAIN                                * 00699401
.*                                                                    * 00701201
.** END OF SPECICATIONS *********************************************** 00703001
.*   MACCOMP Y-1 SC1CL/PZD81                                          * 00704801
.*   MACSTAT Y-1 72273/DCR20593                                       * 00706601
.*   MACSTAT Y-3 77277/OZ26071                               @ZA26071 * 00708401
.*   MACSTAT Y-3 82039/OZ59816 MISSING & ON KEYREG PARAMETER @ZA59816 * 00710201
.*   MACSTAT Y-4 93200/ VSE/ESA SINGLE SUPERVISOR            @D61BDVB * 00712001
.*   STATUS  OS/VS2 HBB2102                                    @G860PXB 00713801
.*                                                                 @D1A 00715601
.*$D1=0057      JBB1326   800923   PDXB:   KEY 2,3,4,7 SUPPORT     @D1A 00717401
.*                                         KEYREG,RELATED SUPPORT  @D1A 00719201
.*$P1=0187      JBB1326   810130   PDXB                            @P1A 00721001
.*              VSE/ESA   931208   MVS COMPATIBLE MODESET      @D61BDVB 00722801
.*------------------------------------------------------------*@D61BDVB 00724601
.* TEST FOR SPLEVEL (PREVIOUS VSE VERSION REQUESTED)          *@D61BDVB 00726401
.*------------------------------------------------------------*@D61BDVB 00728201
.*                                                             @D61BDVB 00730001
         SPLEVEL TEST                                          @D61BDVB 00731801
         AIF  (('&SYSSPLV' EQ '1') OR                                  *00733601
               ('&SYSSPLV' EQ '2') OR                                  *00735401
               ('&SYSSPLV' EQ '3')).VSEOLD                     @D61BDVB 00737201
.*------------------------------------------------------------*@D61BDVB 00739001
*   MODESET VSE-ESA 2.1.0 - MACSTAT Y-4                                 00740801
.*                                                             @D61BDVB 00742601
         AIF  ((T'&KEY EQ 'O') AND (T'&MODE EQ 'O') AND                X00744401
                (T'&MF EQ 'O') AND (T'&REG EQ '0')).PCK        @D61BDVB 00747201
         AGO   .PCK1                                                    00750000
.PCK     AIF   ((T'&EXTKEY EQ 'O') AND (T'&SAVEKEY EQ 'O') AND         X00800000
               (T'&KEYADDR EQ 'O') AND (T'&WORKREG EQ 'O') AND         X00850000
               (T'&KEYREG EQ 'O')).ERROR9                      @ZA59816 00900000
.*                                                                      00925001
.*------------------------------------------------------------*@D61BDVB 00950001
.* TEST FOR PROTECTION KEY PARAMETERS (INLINE CODE GENERATION)*@D61BDVB 00975001
.*------------------------------------------------------------*@D61BDVB 01000001
.PCK1    AIF   ((T'&EXTKEY NE 'O') OR                                  *01025001
               (T'&KEYADDR NE 'O') OR                                  *01050001
               (T'&SAVEKEY NE 'O') OR                                  *01060002
               (T'&KEYREG NE 'O')).INLINE                      @D61BDVB 01075001
.*------------------------------------------------------------*@D61BDVB 01100001
.* MODESET SVC MACRO GENERATION                               *@D61BDVB 01125001
.*------------------------------------------------------------*@D61BDVB 01150001
.*           TEST FOR NO LONGER SUPPORTED PARAMETERS           @D61BDVB 01175001
.*                                                             @D61BDVB 01200001
         AIF   (T'&REG NE 'O').ERROR1     REG NOT SUPPORTED    @D61BDVB 01225001
         AIF   ((T'&MF NE 'O') AND ('&MF' NE 'L')).MF                   01250000
         AIF   (T'&KEY EQ 'O').MDE     KEY NOT SPECIFIED                01300000
         AIF   (('&KEY' NE 'ZERO') AND ('&KEY' NE 'NZERO') AND         *01333301
                ('&KEY' NE 'USER')).ERROR2                     @D61BDVB 01366601
&B26     SETB  1                                                        01400000
&B27     SETB  ('&KEY' EQ 'ZERO')      SET 0 KEY IF ZERO SPECIFIED      01450000
.MDE     ANOP                                                           01500000
         AIF   (T'&MODE EQ 'O').ENAB   MODE NOT SPECIFIED               01550000
         AIF   (('&MODE' NE 'PROB') AND ('&MODE' NE 'SUP')).ERROR3      01600000
&B29     SETB  1                                                        01650000
&B28     SETB  ('&MODE' EQ 'SUP')      INDICATE SUPV STATE IF SUP SPEC  01700000
.ENAB    ANOP                                                           01750000
.MF      ANOP                                                           02050000
         AIF   (T'&MF NE 'O').CK2      WAS MF OMITTED?                  02100000
         CNOP  0,4                                                      02150000
&NAME    BAL   1,*+8                                                    02200000
         AGO   .DC                                                      02250000
.CK2     ANOP                                                           02300000
         AIF   ('&MF' NE 'L').CK3      WAS MF=L SPECIFIED?              02350000
&NAME    DS    0F                                                       02400000
.DC      ANOP                                                           02450000
         DC    B'&B0&B1&B2&B3&B4&B5&B6&B7&B8&B9&B10&B11&B12&B13&B14&B15X02500000
               &B16&B17&B18&B19&B20&B21&B22&B23&B24&B25&B26&B27&B28&B29X02550000
               &B30&B31'                                                02600000
         AIF   (T'&MF EQ 'O').LD                                        02650000
         MEXIT                                                          08300000
.LD      ANOP                                                           08342100
         L     1,0(0,1)                                                 08384201
         AGO   .SVC                                                     08426300
.CK3     ANOP                                                           08468400
         AIF   ('&MF(1)' NE 'E').ERROR6                        @D61BDVB 08518401
         AIF   ((T'&KEY NE 'O') OR (T'&MODE NE 'O')).ERROR8    @D61BDVB 08568401
.CK6     AIF   ('&MF(2)' NE '(1)').CK5                                  08721000
&NAME    L     1,0(1,0)                                                 08763101
         AGO   .SVC                                                     08805200
.CK5     ANOP                                                           08847300
         AIF   ('&MF(2)'(1,1) EQ '(').ERROR7                            08889400
         AIF   (T'&MF(2) EQ 'N').ERROR7                                 08931500
&NAME    L     1,&MF(2)                                                 08973600
.SVC     ANOP                                                           09015700
         SIMSVC WR=(15)                                        @D61BDVB 09036701
         SVC   107                                                      09057800
         MEXIT                                                          09100000
.*                                                             @D61BDVB 09100501
.*------------------------------------------------------------*@D61BDVB 09101001
.* MODESET INLINE CODE MACRO GENERATION                        @D61BDVB 09101501
.*------------------------------------------------------------*@D61BDVB 09102001
.* TEST THAT THE PROTECTION KEY PARAMETERS ARE MUTUALLY EXCLUSIVE       09102900
.* FROM OTHER MODESET PARAMETERS                                        09105800
.INLINE  ANOP                                                  @D61BDVB 09106800
.*       AIF   ('&SYSSPLV' EQ '4').ERROR21                     @D....VB 09107800
         AIF   ((T'&KEY NE 'O') OR (T'&MODE NE 'O') OR                 *09108801
               (T'&REG NE 'O') OR (T'&MF NE 'O')).ERROR11      @D61BDVB 09110401
         AIF   (T'&NAME    EQ 'O').EXTKEY                      @D61BDVB 09112701
&NAME    DS    0H                                              @D61BDVB 09115001
.EXTKEY  ANOP                                                           09117400
.* TEST IF EXTKEY PARAMETER SPECIFIED AND VALID                         09120300
         AIF   (T'&EXTKEY EQ 'O').KEYAD   TEST IF EXTKEY OMITTED        09123200
         AIF   (T'&KEYADDR NE 'O').ERROR15   ERROR IF KEYADDR ALSO      09126100
         AIF   (T'&KEYREG NE 'O').ERROR15    ERROR IF KEYREG ALSO  @D1A 09129000
         AIF   ('&EXTKEY' EQ 'SCHED').SCHED       SCHEDULER KEY         09131900
         AIF   (('&EXTKEY' EQ 'HASP') OR ('&EXTKEY' EQ 'JES')).JES      09134800
.*                                                JES KEY               09137700
         AIF   ('&EXTKEY' EQ 'RSM').RSM           RSM KEY               09140600
         AIF   ('&EXTKEY' EQ 'VSM').VSM           VSM KEY               09143500
         AIF   ('&EXTKEY' EQ 'SRM').SRM           SRM KEY               09146400
         AIF   ('&EXTKEY' EQ 'SUPR').SUPR         SUPREVISOR KEY        09149300
         AIF   ('&EXTKEY' EQ 'DATAMGT').DTMGT     DATA MGT KEY          09152200
         AIF   ('&EXTKEY' EQ 'TCAM').TCAM         TCAM KEY              09155100
         AIF   ('&EXTKEY' EQ 'VTAM').VTAM         VTAM KEY              09158000
         AIF   ('&EXTKEY' EQ 'TCB' ).EXTKEY0                   @D61BDVB 09160101
         AIF   (('&EXTKEY' EQ 'RBT1') OR                               X09162201
                ('&EXTKEY' EQ 'RBT234')).ERROR20               @D61BDVB 09164401
         AIF   ('&EXTKEY' EQ 'ZERO').ZEROK                              09166700
         AIF   ('&EXTKEY' EQ 'KEY2').ZEROD                     @D61BDVB 09169601
         AIF   ('&EXTKEY' EQ 'KEY3').ZEROD                     @D61BDVB 09172501
         AIF   ('&EXTKEY' EQ 'KEY4').ZEROD                     @D61BDVB 09175401
         AIF   ('&EXTKEY' EQ 'KEY7').ZEROD                     @D61BDVB 09178301
         AGO   .ERROR16                                                 09181200
.EXTKEY0 AIF   (T'&WORKREG EQ 'O').ERROR14                              09184100
         AIF   ((&WORKREG LT 0) OR (&WORKREG GT 15)).ERROR12            09187000
         AIF   (T'&SAVEKEY EQ 'O').EXTKEY1                              09189900
         AIF   ('&SAVEKEY' EQ '(2)').WKREG10                   @D61BDVB 09192201
         AIF   (&WORKREG EQ 2).WKREG10 SKIP REG SAVING IF REG2 @D61BDVB 09194501
         LR    &WORKREG,2          SAVE REGISTER 2             @D61BDVB 09196801
.WKREG10 ANOP                                                  @D61BDVB 09199101
         IPK   0(0)                SAVE CURRENT PSW KEY                 09201500
         AIF   ('&SAVEKEY' EQ '(2)').EXTKEY1                   @D61BDVB 09202901
         STC   2,&SAVEKEY                                               09204400
         AIF   (&WORKREG EQ 2).EXTKEY1 SKIP REG SAVING IF REG2 @D61BDVB 09205801
         LR    2,&WORKREG          RESTORE REGISTER 2                   09207300
.EXTKEY1 ANOP                                                           09230500
         AIF   ('&EXTKEY' EQ 'TCB').TCB     KEY FROM TCB                09233400
         AIF   ('&EXTKEY' EQ 'RBT1').RBT1   KEY FROM SVRB               09236300
         AIF   ('&EXTKEY' EQ 'RBT234').RBT234  KEY FROM CALLERS RB      09239200
.* SYMBOLIC NONE PUBLIC VALUES - NOT SUPPORTED BY VSE/ESA      @D61BDVB 09242101
.SCHED   ANOP                                                           09245000
&PSWKEY  SETA  X'10'          SCHEDULER KEY IS 1                        09247900
         AGO   .MVSKEY                                         @D61BDVB 09250801
.JES     ANOP                                                           09253700
&PSWKEY  SETA  X'10'          JES KEY IS 1                              09256600
         AGO   .MVSKEY                                         @D61BDVB 09259501
.RSM     ANOP                                                           09262400
&PSWKEY  SETA  0              RSM KEY IS 0                              09265300
         AGO   .MVSKEY                                         @D61BDVB 09268201
.VSM     ANOP                                                           09271100
&PSWKEY  SETA  0              VSM KEY IS 0                              09274000
         AGO   .MVSKEY                                         @D61BDVB 09276901
.SRM     ANOP                                                           09279800
&PSWKEY  SETA  0              SYSTEM RESOURCE MANAGER KEY IS 0          09282700
         AGO   .MVSKEY                                         @D61BDVB 09285601
.SUPR    ANOP                                                           09288500
&PSWKEY  SETA  0              SUPERVISOR KEY IS 0                       09291400
         AGO   .MVSKEY                                         @D61BDVB 09294301
.DTMGT   ANOP                                                           09297200
&PSWKEY  SETA  X'50'          DATA MGT KEY IS 5                         09300100
         AGO   .MVSKEY                                         @D61BDVB 09303001
.TCAM    ANOP                                                           09305900
&PSWKEY  SETA  X'60'          TCAM KEY IS 6                             09308800
         AGO   .ZEROD                                          @D....VB 09311700
.VTAM    ANOP                                                           09314600
&PSWKEY  SETA  X'60'          VTAM KEY IS 6                             09317500
         AGO   .ZEROD                                          @D....VB 09317800
.RBT1    ANOP                 EXTKEY=RBT1   NOT VALID IN VSE   @D61BDVB 09318101
         AGO   .MVSKEY                                                  09318401
.RBT234  ANOP                 EXTKEY=RBT234 NOT VALID IN VSE   @D61BDVB 09318701
.*                                                                      09319001
.*------------------------------------------------------------*@D61BDVB 09319401
.* GATHER SPECIAL MVS INTERNAL KEY SETTINGS                    @D61BDVB 09319801
.*------------------------------------------------------------*@D61BDVB 09320201
.MVSKEY  AGO   .ERROR20                                        @D61BDVB 09320601
.*------------------------------------------------------------*@D61BDVB 09321001
.* GATHER KEY1 - KEY7 --- VSE/ESA ACTION: KEY=0                @D61BDVB 09321401
.*------------------------------------------------------------*@D61BDVB 09321801
.ZEROD   ANOP                                                  @D61BDVB 09322201
         MNOTE 1,' EXTKEY ARGUMENT SET TO KEY0 BY VSE/ESA '    @D61BDVB 09322700
.ZEROK   ANOP                                                           09323300
&PSWKEY  SETA  0                                                        09326200
         AGO   .SETKEY                                                  09329100
.*------------------------------------------------------------*@D61BDVB 09339201
.* GET KEY FROM PCB                                           *@D61BDVB 09349301
.*------------------------------------------------------------*@D61BDVB 09359401
.TCB     ANOP                                                           09369700
         IC    &WORKREG,PCEKEY     GET KEY FROM PCB            @D61BDVB 09379801
         SPKA  0(&WORKREG)         SET PSW KEY                          09390000
         MEXIT                                                          09400000
.*------------------------------------------------------------*@D61BDVB 09450001
.* EXTKEY PARAMETER PROCESSING                                 @D61BDVB 09500001
.*------------------------------------------------------------*@D61BDVB 09550001
.SETKEY  ANOP                                                           09790000
         AIF   (T'&SAVEKEY EQ 'O').SETKEYC                     @D61BDVB 09816201
         AIF   ('&SAVEKEY' EQ '(2)').SETKEYB                   @D61BDVB 09842401
         AIF   (T'&WORKREG EQ 'O').ERROR14  TEST FOR WORKREG OPERAND    09868600
         AIF   ((&WORKREG LT 0) OR (&WORKREG GT 15)).ERROR12 VALID CHK  09874800
         AIF   (&WORKREG EQ 2).SETKEYB  TEST IF REG 2 TO BE SAVED       09881000
         LR    &WORKREG,2          SAVE REGISTER 2                      09893401
.SETKEYB ANOP                                                           09905800
         IPK   0(0)               SAVE CURRENT PSW KEY                  09912001
.SETKEYC ANOP                                                           09918200
         SPKA  &PSWKEY.(0)         SET PSW KEY                          09924400
         AIF   (T'&SAVEKEY EQ 'O').SETKEYX                     @D61BDVB 09926401
         AIF   ('&SAVEKEY' EQ '(2)').SETKEYX                   @D61BDVB 09928401
         STC   2,&SAVEKEY                                               09930600
         AIF   (&WORKREG EQ 2).SETKEYX                         @D61BDVB 09936801
         LR    2,&WORKREG     RESTORE REGISTER 2                        09943000
.SETKEYX ANOP                                                  @D61BDVB 09946501
         MEXIT                                                          09950000
.*------------------------------------------------------------*@D61BDVB 09975901
.* KEYADDR PARAMETER PROCESSING                                @D61BDVB 10001801
.*------------------------------------------------------------*@D61BDVB 10027701
.KEYAD   ANOP                                                           10053800
         AIF   (T'&KEYADDR EQ 'O').KREG      TEST IF KEYADDR OMITTED    10057600
         AIF   (T'&KEYREG NE 'O').ERROR15                          @D1A 10061400
         AIF   ('&KEYADDR' EQ '(2)').KEYAD10                            10065200
         AIF   (T'&WORKREG EQ 'O').ERROR14   TEST FOR WORKREG OPERAND   10069000
         AIF   ((&WORKREG LT 0) OR (&WORKREG GT 15)).ERROR12 VALID CHK  10072800
         AIF   (T'&SAVEKEY EQ 'O').KEYAD2                      @D61BDVB 10076601
         AIF   ('&SAVEKEY' EQ '(2)').KEYAD1                    @D61BDVB 10080401
         AIF   (&WORKREG EQ 2).KEYAD1   TEST IF REG 2 TO BE SAVED       10084200
         LR    &WORKREG,2          SAVE REGISTER 2                      10091801
.KEYAD1  ANOP                                                           10099400
         IPK   0(0)                SAVE CURRENT PSW KEY                 10103201
         AIF   ('&SAVEKEY' EQ '(2)').KEYAD2                    @D61BDVB 10107001
         STC   2,&SAVEKEY                                               10110800
         AIF   (&WORKREG EQ 2).KEYAD2                                   10114600
         LR    2,&WORKREG          RESTORE REGISTER 2                   10118400
.KEYAD2  ANOP                                                           10122200
         IC    &WORKREG,&KEYADDR   GET KEY FROM SAVE LOCATION           10126000
         SPKA  0(&WORKREG)         SET PSW KEY                          10145000
         MEXIT                                                          10150000
.*                                                                      10196001
.KEYAD10 AIF   (T'&SAVEKEY EQ 'O').KEYAD11                              10242000
         AIF   ('&SAVEKEY' EQ '(2)').ERROR18                            10265000
         AIF   (T'&WORKREG EQ 'O').ERROR14                              10288000
         AIF   (&WORKREG EQ 2).ERROR18                                  10311000
         LR    &WORKREG,2          SAVE REGISTER 2                      10334001
         IPK   0(0)                SAVE CURRENT PSW KEY                 10357000
         STC   2,&SAVEKEY                                               10380000
         LR    2,&WORKREG          RESTORE REGISTER 2                   10403000
.KEYAD11 ANOP                                                           10414501
         SPKA  0(2)               SET PSW KEY                           10426000
         MEXIT                                                          10450000
.*------------------------------------------------------------*@D61BDVB 10487501
.* KEYREG  PARAMETER PROCESSING                                @D61BDVB 10525001
.*------------------------------------------------------------*@D61BDVB 10562501
.KREG    ANOP                                                      @D1A 10600000
         AIF   (T'&KEYREG EQ 'O').NKEYAD                           @D1A 10650000
         AIF   (T'&SAVEKEY EQ 'O').KREG15                      @D61BDVB 10700001
         AIF   ('&SAVEKEY(1)' EQ '&KEYREG').ERROR19                @D1A 10750000
         AIF   ('&SAVEKEY' EQ '(2)').KREG10                        @D1A 10800000
         AIF   (T'&WORKREG EQ 'O').ERROR14                         @D1A 10850000
         AIF   ((&WORKREG LT 0) OR (&WORKREG GT 15)).ERROR12       @P1A 10900000
         AIF   (&WORKREG EQ 2).ERROR18                             @D1A 10950000
         AIF   ('&WORKREG' EQ '&KEYREG').ERROR19                   @D1A 11000000
         LR    &WORKREG,2          SAVE REGISTER 2                 @D1A 11033301
.KREG10  ANOP                                                      @D1A 11066601
         IPK   0(0)                SAVE CURRENT PSW KEY            @D1A 11100000
         AIF   ('&SAVEKEY' EQ '(2)').KREG15                    @D61BDVB 11125001
         STC   2,&SAVEKEY                                          @D1A 11150000
         LR    2,&WORKREG          RESTORE REGISTER 2              @D1A 11200000
.KREG15  ANOP                                                  @D61BDVB 11250001
         SPKA  0(&KEYREG)          SET PSW KEY                     @D1A 11450000
         MEXIT                                                     @D1A 11500000
.*------------------------------------------------------------*@D61BDVB 11550001
.* SAVEKEY PARAMETER PROCESSING                                @D61BDVB 11600001
.*------------------------------------------------------------*@D61BDVB 11650001
.NKEYAD  ANOP                                                           11700000
         AIF   (T'&SAVEKEY EQ 'O').ERROR13   WORKREG ONLY OPERAND       11750000
         AIF   ('&SAVEKEY' EQ '(2)').NKEYAD2                   @D61BDVB 11800001
         AIF   (T'&WORKREG EQ 'O').ERROR14   TEST FOR WORKREG OPERAND   11850000