         MACRO                                                          00050000
&NAME    MODHCF &DUMP=NO                                                00100000
*                                                                       00150000
*        SUPERVISOR - MODHCF - 5686-066-06                     @D61CDUG 00200061
         AGO   .NOCOPY                                         @D61CDUG 00250061
.*                                                                      00400000
*********************************************************************** 00900000
*                                                                       00950000
*        LICENSED MATERIALS - PROPERTY OF IBM                  @D61CDUG 00956261
*        "RESTRICTED MATERIALS OF IBM"                         @D61CDUG 00962461
*        5686-066 (C) COPYRIGHT IBM CORP. 1980, 1994           @D61CDUG 00968661
*                                                                       00974861
*********************************************************************** 00981061
.NOCOPY  ANOP                                                  @D61CDUG 00987261
.*                                                             @D61CDUG 00993461
.* /* START OF SPECIFICATIONS ***************************************** 01000000
.*                                                                      01050000
.*01* MODULE NAME = MODHCF                                              01100000
.*                                                                      01150000
.*01* MODULE TYPE = HARD COPY FILE COMMUNICATION MACRO                  01200000
.*                                                                      01250000
.*01* DESCRIPTIVE NAME = MODIFY DIRECTION FOR READ FROM HARD COPY FILE  01300000
.*                                                                      01350000
.*01* NOTES = NEW MODULE FOR DOS /VSE AF 1.3                            01400000
.*              HARD COPY FILE SUPPORT                                  01450000
.*                                                                      01500000
.*01* CHANGE ACTIVITIES = AS FOLLOWS                                    01550000
.*             BLOCKED HARD COPY FILE                          @D37ADRP 01600000
.*             RETRIEVE MESSAGES WITH OUTSTANDING REPLID       @D52ODLH 01625052
.*A000000-999999                                               @D37ADRP 01650000
.*                                                                      01700000
.* /* END OF SPECIFICATION ******************************************** 01750000
.*                                                                      01800000
.*   R2=48 INDICATION FOR MODHCF SERVICE                                01850000
.*         R0=0 BW                                                      01900000
.*         R0=4 FW                                                      01950000
.*         R0=8 UNC                                                     02000000
.*         R0=12 ORMSG                                         @D52ODLH 02016652
.*         R0=16 REDISP                                        @D52ODLH 02033252
.*                                                                      02050000
         AIF   (N'&SYSLIST NE 2).ERR                                    02100000
&NAME    DS    0H                                                       02150000
         AIF   ('&SYSLIST(1)'(1,1) NE '(').ERR                          02200000
         AIF   ('&SYSLIST(1)'(2,2) EQ '1)').GENOP2                      02250000
         LR    1,&SYSLIST(1,1)    GET ADDR OF HCFCB                     02300000
.GENOP2  ANOP                                                           02350000
         AIF   ('&SYSLIST(2)'(1,1) EQ '(').ERR                          02400000
         AIF   ('&SYSLIST(2)'  NE 'FW').NOFW                            02450000
         LA    0,4                INDICATE MODHCF WITH FW               02500000
         AGO   .GENBAL                                                  02550000
.NOFW    ANOP                                                           02600000
         AIF   ('&SYSLIST(2)'  NE 'BW').NOBW                            02650000
         SR    0,0                INDICATE MODHCF WITH BW               02700000
         AGO   .GENBAL                                                  02750000
.NOBW    ANOP                                                           02800000
         AIF   ('&SYSLIST(2)'  NE 'UNC').NOUNC                 @D52ODLH 02850052
         LA    0,8                INDICATE MODHCF WITH UNC              02900000
         AGO   .GENBAL                                         @D52ODLH 02905552
.NOUNC   ANOP                                                  @D52ODLH 02911052
         AIF   ('&SYSLIST(2)'  NE 'ORMSG').NOORMSG             @D52ODLH 02916552
         LA    0,12               INDICATE MODHCF WITH ORMSG   @D52ODLH 02922052
         AGO   .GENBAL                                         @D52ODLH 02927552
.NOORMSG ANOP                                                  @D52ODLH 02933052
         AIF   ('&SYSLIST(2)'  NE 'REDISP').ERR                @D52ODLH 02938552
         LA    0,16               INDICATE MODHCF WITH REDISP  @D52ODLH 02944052
.GENBAL  ANOP                                                           02950000
         AIF   ('&DUMP' EQ 'YES').DMP                                   03000000
         ASYSCOM 2                                                      03050000
         ICM   2,7,X'35'(2)       GET 24 BIT ADDR OF CRTTAB    @D61CDUG 03100061
         L     15,X'24'(2)        GET ENTRY POINT ADDR                  03150000
         AGO   .NODMP                                                   03200000
.DMP     ANOP                                                           03250000
         L     15,ACONTROL        GET ENTRY POINT ADDR                  03300000
.NODMP   ANOP                                                           03350000
         LA    2,48               INDICATE MODHCF                       03400000
         BALR  14,15              INVOKE MODHCF SERVICE                 03450061
         MEXIT                                                          03500000
.ERR     MNOTE 5,'INCORRECT POS. OPERANDS SPECIFIED IN MODHCF MACRO INS*03550000
               TRUCTION, GENERATION TERMINATED'                         03600000
         MEND                                                           03650000
