         MACRO                                                          00050000
         MTMOD &RECFORM=,&WORKA=,&CKPTREC=,&READ=,&TYPEFLE=,&NOTEPNT=,&100100000
               ERROPT=,&SEPASMB=,&RDONLY=,&ERREXT=,&ASCII=,&NAME=       00150000
         AIF   (T'&NAME NE 'O').INT                                     00200000
         AGO   .ZZZ                                            @U31TUJS 00250000
* COPYRIGHT = THIS MACRO IS "RESTRICTED MATERIALS OF IBM"      @D41TDKY 00300000
*             5686-007 (C) COPYRIGHT IBM CORP. 1977,1989       @U31TUJS 00350000
*             ALL RIGHTS RESERVED                              @U31TUJS 00400000
*             LICENSED MATERIALS-PROPERTY OF IBM               @D41TDKY 00450000
*             SEE COPYRIGHT INSTRUCTIONS, G120-2083            @U31TUJS 00500000
.ZZZ     ANOP                                                  @U31TUJS 00550000
         MNOTE 0,'OBSOLETE MACRO MTMOD'                        @D147DRR 00600000
         MNOTE   'PLEASE DELETE MACRO CALL IN SOURCE'          @D147DRR 00650000
         MEXIT                                                          00700000
.INT     ANOP                                                           00750000
         PUNCH '  CATALOG &NAME..OBJ   REPLACE=YES '                    00800000
         PUNCH ' INCLUDE IJJTCTL'                                       00850000
&NAME    CSECT ,                                               @DA34433 00900000
         USING *,15               ***********************-15-U @DA34433 00950000
         L     15,IJFFVCON        ADDRESS OF MODULE IJJTCTL    @DA34433 01000000
         BR    15                 GIVE CONTROL TO IJJTCTL      @DA34433 01050000
IJFFVCON DC    V(IJJTCTL)         VCON                         @DA34433 01100000
         DROP  15                 ***********************-15-D @DA34433 01150000
         MEND                                                           01200000
