         MACRO                                                          00050000
&NAME    MVCOM &TO,&LNG,&FROM                                           00100000
.*                                                                      00150000
*********************************************************************** 00200000
*                                                                       00250000
.*       IBM VSE / ADVANCED FUNCTIONS                          @D31UDGN 00300000
*        SUPERVISOR - MVCOM - 5686-007-06                      @D25IDAP 00350001
.*                                                                      00400000
         AGO   .CPRIGHT                                                 00450000
.*                                                                      00500000
*        THIS MACRO IS "RESTRICTED MATERIALS OF IBM"           @D31UDGN 00550000
*        5686-007 (C) COPYRIGHT IBM CORP. 1979, 2000           @D25IDAP 00600001
*        ALL RIGHTS RESERVED                                   @D31UDGN 00650000
*        LICENSED MATERIALS - PROGRAM PROPERTY OF IBM          @D31UDGN 00700000
.*       SEE COPYRIGHT INSTRUCTIONS, G120-2083                 @D31UDGN 00750000
.*                                                                      00800000
.CPRIGHT ANOP                                                           00850000
*                                                                       00900000
*********************************************************************** 00950000
.*                                                                      01000000
         AIF   (T'&TO NE 'N').TI                                        01050000
         AIF   (T'&LNG NE 'N').LI                                       01100000
         AIF   (T'&FROM EQ 'O').FI                                      01150000
         AIF   (&LNG EQ 0 OR &TO LT 12 OR &LNG+&TO GT 24).LMT           01200000
         AIF   ('&FROM'(1,1) NE '(').ADDR                               01250000
         AIF   ('&FROM'(2,2) NE '0)').N0                                01300000
&NAME    BAL   1,*+8         SKIP CONSTANTS                             01350001
         AGO   .MVC                                                     01400000
.ADDR    ANOP                                                           01450000
&NAME    L     0,=A(&FROM)   LOAD SOURCE ADDRESS                        01500001
         AGO   .BAL                                                     01550000
.N0      ANOP                                                           01600000
&NAME    LR    0,&FROM(1)    LOAD SOURCE ADDRESS                        01650001
.BAL     BAL   1,*+8         SKIP CONSTANTS                             01700001
.MVC     DC    AL2(&LNG-1),AL2(&TO) LENGTH-1 AND OFFSET                 01750001
         SVC   5             GET DATA MOVED INTO COMREG                 01800001
         MEXIT                                                          01850000
.TI      MNOTE 5,'&TO NOT SELF-DEFINING - MACRO IGNORED'                01900000
         MEXIT                                                          01950000
.LI      MNOTE 5,'&LNG NOT SELF-DEFINING - MACRO IGNORED'               02000000
         MEXIT                                                          02050000
.FI      MNOTE 5,'FROM OMITTED - MACRO IGNORED'                         02100000
         MEXIT                                                          02150000
.LMT     MNOTE 5,'&TO AND &LNG EXCEED VALID LIMITS - MACRO IGNORED'     02200000
         MEND                                                           02250000
