         MACRO                                                          00050000
&NAME     ORMOD                                                        000100000
               &RECFORM=FIXUNB,                                        B00150000
               &CONTROL=,                                              C00200000
               &IOAREA2=,                                              D00250000
               &WORKA=,                                                E00300000
               &DEVICE=,                                               F00350000
               &BLKFAC=,                                               G00400000
               &SEPASMB=                                                00450000
         LCLC  &UF,&ZC,&ZIWB,&ZR,&DT,&CL1,&LAB,&ENT                     00500000
         LCLC  &UB,&UF1,&RECFM                                          00550000
.* IBM DISK OPERATING SYSTEM                                        4-0 00600000
* 5745-SC-OCR  ORMOD    RELEASE 33                                      00650000
*                                                                       00700000
* COPYRIGHT = THIS MACRO IS "RESTRICTED MATERIALS OF IBM"     *@D41TDKY 00750000
*             5686-007 (C) COPYRIGHT IBM CORP. 1974, 1988     *@D41TDKY 00800000
*             ALL RIGHTS RESERVED                             *@D41TDKY 00850000
*             LICENSED MATERIALS-PROPERTY OF IBM              *@D41TDKY 00900000
.*            SEE COPYRIGHT INSTRUCTIONS, G120-2083           *@D41TDKY 00950000
*                                                                       01000000
&CL1     SETC  '&SYSNDX'(2,3)                                           01050000
&UF      SETC  'U'                                                      01100000
&UF1     SETC  'U'                                                      01150000
&ZC      SETC  'Z'                                                      01200000
&ZIWB    SETC  'Z'                                                      01250000
&ZR      SETC  'Z'                                                      01300000
&DT      SETC  'T'                                                      01350000
&UB      SETC  'U'                                                      01400000
&RECFM   SETC  'FIXUNB'                                                 01450000
         AIF   ('&RECFORM' NE 'UNDEF').F00B                             01500000
         AIF   (T'&BLKFAC EQ 'O').F00B                                  01550000
         AIF   ('&BLKFAC' EQ 'YES').F00A1                           3-4 01600000
         AIF   ('&DEVICE' NE '1287D').F00A3                         3-4 01650000
         MNOTE 0,'BLKFAC NOT ALLOWED.IGNORE'                        3-4 01700000
         AGO   .F00A2                                               3-4 01750000
.F00A1   AIF   ('&DEVICE' NE '1287D').F00A                          3-4 01800000
         MNOTE 0,'BLKFAC NOT ALLOWED.IGNORE'                        3-4 01850000
.F00A2   ANOP                                                       3-4 01900000
&RECFM   SETC  '&RECFORM'                                           3-4 01950000
         AGO   .F00C                                                3-4 02000000
.F00A3   MNOTE 0,'IMPROPER BLKFAC.ASSUME YES'                       3-4 02050000
.F00A    ANOP                                                           02100000
&RECFM   SETC  'UNDBLK'                                                 02150000
         AGO   .F00C                                                    02200000
.F00B    AIF   ('&RECFORM' NE 'UNDBLK').F00B1                       3-6 02250000
         MNOTE 0,'IMPROPER RECFORM. ASSUME FIXUNB'                      02300000
         AGO   .F00B2                                                   02350000
.F00B1   ANOP                                                           02400000
&RECFM   SETC  '&RECFORM'                                               02450000
.F00B2   AIF   (T'&BLKFAC EQ 'O').F00C                              3-6 02500000
         MNOTE 0,'IMPROPER BLKFAC. IGNORE'                              02550000
.F00C    AIF   ('&RECFM' EQ 'UNDEF').F1                             3-6 02600000
         AIF   ('&RECFM' EQ 'UNDBLK').F0A                               02650000
&UF      SETC  'F'                                                      02700000
&UF1     SETC  'F'                                                      02750000
         AIF   ('&RECFM' EQ 'FIXUNB').F1                                02800000
         AIF   ('&RECFM' EQ 'FIXBLK').F0                                02850000
         MNOTE 0,'IMPROPER RECFORM. ASSUME FIXUNB'                      02900000
         AGO   .F1                                                      02950000
.F0A     ANOP                                                           03000000
&UF1     SETC  'D'                                                      03050000
         AGO   .F0B                                                     03100000
.F0      ANOP                                                           03150000
&UF1     SETC  'X'                                                      03200000
         AIF   ('&DEVICE' NE '1287D').F0B                          3-8  03250000
         MNOTE 0,'INVALID RECFORM WITH 1287D. ERRORS MAY RESULT'   3-8  03300000
.F0B     ANOP                                                           03350000
&UB      SETC  'B'                                                      03400000
.F1      AIF   ('&CONTROL' EQ 'YES').F1A                                03450000
         AIF   (T'&CONTROL EQ 'O').F2                                   03500000
         MNOTE 0,'IMPROPER CONTROL. ASSUME YES'                         03550000
.F1A     ANOP                                                           03600000
&ZC      SETC  'C'                                                      03650000
.F2      AIF   (T'&IOAREA2 EQ 'O').F3                                   03700000
         AIF   ('&IOAREA2' EQ 'YES').F2A                                03750000
         MNOTE 0,'IMPROPER IOAREA2. ASSUME YES'                         03800000
.F2A     MNOTE 0,'IOAREA2 USED FOR TAPE JOURNAL ONLY'               3-8 03850000
         AIF   ('&WORKA' EQ 'YES').F2B                              3-8 03900000
         AIF   (T'&WORKA EQ 'O').F2C                                    03950000
         MNOTE 0,'IMPROPER WORKA. ASSUME YES'                           04000000
.F2B     MNOTE 0,'WORKA USED FOR TAPE JOURNAL ONLY'                 3-8 04050000
&ZIWB    SETC  'B'                                                      04100000
         AGO   .F3B                                                     04150000
.F2C     ANOP                                                           04200000
&ZIWB    SETC  'I'                                                      04250000
         AGO   .F3B                                                     04300000
.F3      AIF   ('&WORKA' EQ 'YES').F3A                                  04350000
         AIF   (T'&WORKA EQ 'O').F3B                                    04400000
         MNOTE 0,'IMPROPER WORKA. ASSUME YES'                           04450000
.F3A     MNOTE 0,'WORKA USED FOR TAPE JOURNAL ONLY'                 3-8 04500000
&ZIWB    SETC  'W'                                                      04550000
.F3B     AIF   ('&DEVICE' EQ '1285').F5                             3-6 04600000
         AIF   ('&DEVICE' EQ '1287T').F5                                04650000
         AIF   ('&DEVICE' NE '1287D').F4A                               04700000
&DT      SETC  'D'                                                      04750000
         AGO   .F5                                                      04800000
.F4A     AIF   (T'&DEVICE EQ 'O').F5                                3-6 04850000
         MNOTE 0,'IMPROPER DEVICE. ASSUME 1285'                         04900000
.F5      ANOP                                                           04950000
&LAB     SETC  'IJM&UF1&ZC&ZIWB&DT&ZR'                                  05000000
         AIF   (T'&NAME EQ 'O').F6                                      05050000
&LAB     SETC  '&NAME'                                                  05100000
.F6      AIF   (T'&SEPASMB EQ 'O').F8                                   05150000
         AIF   ('&SEPASMB' EQ 'YES').F7                                 05200000
         MNOTE 0,'IMPROPER SEPASMB. ASSUME YES'                         05250000
.F7      PUNCH '           CATALR  &LAB,4.0'                        4-0 05300000
.F8      ANOP                                                           05350000
*                                                                       05400000
* DSECT SECTION FOR 1285/1287                                       3-1 05450000
*                                                                       05500000
IJMT&CL1 DSECT                                                          05550000
         DS    CL2                                                      05600000
IJM5&CL1 DS    CL14          DUMMY CCB                                  05650000
IJM8&CL1 DS    CL1           NOT USED                                   05700000
IJM9&CL1 DS    CL3           ADDR OF LOGIC MODULE                       05750000
IJMA&CL1 DS    CL1           DTF TYPE                                   05800000
IJMB&CL1 DS    CL1           PIOCS SWITCHES                             05850000
         DS    CL1           DEVICE TYPE                            3-1 05900000
IJM20&CL1 DS   CL1           SWITCHES                               3-1 05950000
IJM0&CL1 DS    CL2           RESIDUAL COUNT                             06000000
IJM1&CL1 DS    CL2           TRANSMISSION INFO                          06050000
IJM2&CL1 DS    CL2           CSW STATUS BITS                            06100000
IJM3&CL1 DS    CL2           SYMBOLIC UNIT ADDRESS                      06150000
IJM4&CL1 DS    CL1           NOT USED                                   06200000
         DS    CL3           CCW ADDRESS                                06250000
IJM6&CL1 DS    CL1           NOT USED                                   06300000
IJM7&CL1 DS    CL3           CCW ADDR IN CSW                            06350000
         DS    CL8                     SENSE CCW                        06400000
IJMC&CL1 DS    CL4           EQUIP CHECKS                           3-1 06450000
IJMD&CL1 DS    CL4           AFTER TEN RETRIES                          06500000
IJME&CL1 DS    CL4           WRONG LENGTH RECORDS                       06550000
IJMF&CL1 DS    CL4           AFTER TEN RETRIES                          06600000
IJMG&CL1 DS    CL4           KEYBOARD CORRECTIONS                       06650000
IJMH&CL1 DS    CL4           DATA CHECKS                                06700000
IJMI&CL1 DS    CL4           LINES MARKED                               06750000
IJMJ&CL1 DS    CL4           TOTAL LINES READ                           06800000
IJMK&CL1 DS    CL1           ERROR INDICATORS                           06850000
IJML&CL1 DS    CL1           LIOCS SWITCHES                             06900000
IJMR&CL1 DS    CL1           NORMAL COMMAND CODE                        06950000
IJMS&CL1 DS    CL1           CNTRL COMMAND CODE                         07000000
IJMM&CL1 DS    CL4           IOAREA2 ADDRESS                            07050000
         AIF   ('&UB' NE 'B').F7A8                                      07100000
IJMO&CL1 DS    CL4           IOAREA1 CCW CHAIN                          07150000
         AIF   (T'&IOAREA2 NE 'O').F7A1                                 07200000
IJMP&CL1 DS    CL4           NOT USED                                   07250000
         AGO   .F7A2                                                    07300000
.F7A1    ANOP                                                           07350000
IJMP&CL1 DS    CL4           IOAREA2 CCW CHAIN                          07400000
.F7A2    ANOP                                                           07450000
IJMP1&CL1 DS    CL2          BLOCKING FACTOR                            07500000
IJMP2&CL1 DS    CL2          RECORD SIZE  OR                            07550000
          DS    CL4          NOT USED                                   07600000
IJMZ&CL1 DS    CL8           CNTRL CCW                                  07650000
         AGO   .F7A9                                                    07700000
.F7A8    ANOP                                                           07750000
IJMO&CL1 DS    CL8           READ CCW                                   07800000
IJMP&CL1 DS    CL8           GTNL CCW                                   07850000
IJMZ&CL1 DS    CL8           CNTRL CCW                                  07900000
.F7A9    ANOP                                                           07950000
IJMN&CL1 DS    CL4           EOF ADDR                                   08000000
IJMQ&CL1 DS    CL4           CORRECTION EXIT ADDRESS                    08050000
IJMY&CL1 DS    CL4           IOAREA1 ADDR                               08100000
IJMX&CL1 DS    CL4           DC A(&BLKS-1)                              08150000
IJMU&CL1 DS    CL2           SR 13,&RECS                                08200000
IJMV&CL1 DS    CL2           LR &RECS,13                                08250000
IJMW&CL1 DS    CL2           LR &IOR,13                                 08300000
IJM00&CL1 DS    2CL1              SENSE BYTES                  @DA06510 08350000
&LAB      CSECT                                                         08400000
          AIF   (T'&NAME NE 'O').F7A                                    08450000
          AIF   ('&ZC' NE 'C').F7A                                      08500000
&ENT      SETC  '&LAB'(1,4)'Z'.'&LAB'(6,3)                              08550000
          ENTRY &ENT                                                    08600000
&ENT      EQU   *                                                       08650000
.F7A      USING IJMT&CL1,1                                          3-6 08700000
          USING *,15                                                    08750000
*                                                                       08800000
* BRANCH TABLE FOR 1285/1287                                            08850000
*                                                                       08900000
          AIF   ('&ZC' NE 'C').F8A                                      08950000
          B     IJMCN&CL1              BRANCH TO CONTROL                09000000
          AGO   .F8B                                                    09050000
.F8A      SVC   IJML6&CL1              CONTROL ERROR                3-6 09100000
          DC    1H'0'                                                   09150000
.F8B      AIF   ('&DT' EQ 'D').F8B1                                     09200000
          B     IJMRD&CL1              BRANCH TO RDLINE                 09250000
          B     IJMA1&CL1    ENTRY FOR GET                              09300000
          SVC   IJML6&CL1    NO PUT WITH OPT RDR                        09350000
          DC    1H'0'                                                   09400000
          AGO   .F8B2                                                   09450000
.F8B1     B     IJMWT&CL1              BRANCH TO WAITF                  09500000
          B     IJMA1&CL1              BRANCH TO READ                   09550000
          SVC   IJML6&CL1              NO PUT WITH OPTICAL READER       09600000
          DC    1H'0'                                                   09650000
          B     IJMRS&CL1              BRANCH TO RSCN                   09700000
          B     IJMDY&CL1              BRANCH TO DSPLY                  09750000
.F8B2     ANOP                                                          09800000
*                                                                       09850000
* START OF GET/READ MOD                                                 09900000
*                                                                       09950000
IJMA1&CL1 ST    1,IJMS3&CL1                                             10000000
          AIF   ('&DT' EQ 'D').F8G0                                     10050000
          AIF   ('&ZIWB' EQ 'I').F8G0                                   10100000
          AIF   ('&ZIWB' EQ 'Z').F8G0                                   10150000
          ST    IJML0&CL1,IJMS4&CL1      SAVE WORK AREA ADDR            10200000
.F8G0     STM   IJML3&CL1,IJML4&CL1,IJMSV&CL1  SAVE REG 13 AND 14       10250000
          MVI   IJMC1&CL1,IJMLI&CL1    INSERT X'00' 1ST POSITION        10300000
          MVC   IJMC1&CL1+1(5),IJMC1&CL1    ZERO RETRY COUNT AREAS      10350000
          MVI   IJMK&CL1,IJMLI&CL1      ZERO ERROR INDICATORS           10400000
          AIF   ('&DT' EQ 'T').F9A                                      10450000
         ST    0,IJM4&CL1               PUT CCW ADDR IN CCB         3-1 10500000
          LA    1,24(1)                                                 10550000
          SVC   IJML7&CL1              EXCP-READ LINE                   10600000
          LM    IJML3&CL1,IJML4&CL1,IJMSV&CL1  RESTORE REG 13 & 14      10650000
         L     1,IJMS3&CL1           RESTORE REG ONE                3-9 10700000
          BR    IJML4&CL1              RETURN TO USER                   10750000
.F9A      AIF   ('&DT' EQ 'D').F9A1                                     10800000
          AIF   ('&UB' EQ 'B').F9                                       10850000
          AIF   ('&ZIWB' EQ 'Z').F8G                                    10900000
          B     IJMTL&CL1              TWO IOAREAS AND/OR WORKA         10950000
.F8G      ANOP                                                          11000000
IJMTK&CL1 OI    IJML&CL1,IJML8&CL1     SET FIRST TIME SW FOR RETRIES    11050000
IJMTL&CL1 TM    IJML&CL1,IJML8&CL1     FIRST TIME SW SET                11100000
          BZ    IJMA2&CL1    NO, TEST I/O COMPLETE                      11150000
          NI    IJML&CL1,IJMLP&CL1     TURN OFF FIRST TIME SW           11200000
          MVC   *+11(1),IJMX&CL1+3      SET LENGTH FOR BLANK OF AREA    11250000
          L     IJML3&CL1,IJMY&CL1      GET I/O ADDRESS                 11300000
          XC    0(0,IJML3&CL1),0(IJML3&CL1)   BLANK OUT I/O AREA        11350000
IJMGB&CL1 LA    1,24(1)                                                 11400000
          SVC   IJML7&CL1              EXCP-GET RECORD                  11450000
IJMTJ&CL1 TM    IJM5&CL1,IJML8&CL1     TEST IF I/O COMPLETE             11500000
          BO    *+6                    YES, IF NO WAIT                  11550000
          SVC   7                      WAIT TIL I/O COMPLETE            11600000
          L     1,IJMS3&CL1                                             11650000
          TM    IJM2&CL1,IJMLF&CL1     TEST EOF                         11700000
          BZ    IJMT8&CL1              NO, CHECK FOR ERRORS             11750000
          L     IJML3&CL1,IJMSV&CL1    RESTORE REG 13                   11800000
          L     IJML5&CL1,IJMN&CL1     GET EOF ADDRESS                  11850000
          BR    IJML5&CL1              BRANCH TO EOF ROUT               11900000
IJMA2&CL1 LA    1,24(1)      TO REF NEW CCB                             11950000
          B     IJMTJ&CL1                                               12000000
         AGO   .F20                                                 3-5 12050000
.F9      MVI   IJMBA&CL1+1,IJML0&CL1   TURN OFF BRANCH              3-5 12100000
          TM    IJML&CL1,IJML8&CL1     FIRST TIME SW SET                12150000
          BZ    IJMBA&CL1              NO                               12200000
          AIF   ('&ZIWB' EQ 'B' OR '&ZIWB' EQ 'I').F0C                  12250000
          NI    IJML&CL1,IJMLP&CL1     TURN OFF FIRST TIME SW           12300000
.F0C      MVI   IJMRC&CL1,IJML0&CL1    ZERO OUT ERROR RECORD        3-6 12350000
          MVC   IJMRC&CL1+1(3),IJMRC&CL1       AND RECORD CTR           12400000
IJMBE&CL1 L     IJML4&CL1,IJMY&CL1     GET IOAREA ADDR                  12450000
          MVC   32(4,1),IJMO&CL1       GET CCW CHAIN                    12500000
          L     1,IJMX&CL1             GET BLOCKSIZE - 1                12550000
          L     IJML3&CL1,IJMFF&CL1    GET CONST FOR COMP-              12600000
IJMBF&CL1 CR    1,IJML3&CL1            COUNT GT 255                     12650000
          BH    IJMBI&CL1              YES, GO ZERO OUT 255 BYTES       12700000
          STC   1,IJMBI&CL1+1          NO, PUT COUNT I  INST            12750000
          MVI   IJMBJ&CL1+1,IJMLI&CL1  ZERO OUT BRANCH                  12800000
IJMBI&CL1 XC    0(255,IJML4&CL1),0(IJML4&CL1)                           12850000
          S     1,IJMFF&CL1            REDUCE COUNT BY 255              12900000
          A     IJML4&CL1,IJMFF&CL1    BUMP PTR TO IOAREA               12950000
IJMBJ&CL1 B     IJMBF&CL1              GO ZERO SOME MORE                13000000
          MVI   IJMBJ&CL1+1,IJMLH&CL1  RESTORE BRANCH                   13050000
          MVI   IJMBI&CL1+1,IJMSZ&CL1   RESTORE CNT OF 255              13100000
          L     1,IJMS3&CL1            RESTORE REG 1                    13150000
          LA    1,24(1)                POINT TO REAL CCB                13200000
          SVC   IJML7&CL1              EXCP - READ BLOCK                13250000
          L     1,IJMS3&CL1            RESTORE REG 1                    13300000
          AIF   ('&ZIWB' EQ 'W' OR '&ZIWB' EQ 'Z').F0D                  13350000
          LA    IJML4&CL1,0            GET ZERO FOR COMP                13400000
          CH    IJML4&CL1,IJMER&CL1    WAS AN ERROR JUST CORRECTED      13450000
          BL    IJMTG&CL1              YES, GO BUMP LINE CTR            13500000
IJMBL&CL1 TM    IJML&CL1,IJML8&CL1     FIRST TIME SW SET                13550000
          BZ    IJMBA&CL1              NO, GO PROCESS RECORD            13600000
.F0D      AIF   ('&ZIWB' EQ 'W' OR '&ZIWB' EQ 'Z').F0E              3-6 13650000
          NI    IJML&CL1,IJMLP&CL1     TURN OFF FIRST TIME SW           13700000
.F0E      ANOP                                                          13750000
IJMBM&CL1 LA    1,24(1)                POINT TO REAL CCB                13800000
          TM    IJM5&CL1,IJML8&CL1     TEST I/O COMPLETE                13850000
          BO    *+6                    YES, IF NO WAIT                  13900000
          SVC   7                      WAIT                             13950000
          L     1,IJMS3&CL1            RESTORE REG 1                    14000000
IJMBS&CL1 MVI   IJMRC&CL1,IJML0&CL1    ZERO OUT ERROR RECORD        4-0 14050000
          MVC   IJMRC&CL1+1(3),IJMRC&CL1          AND RECORD CTR        14100000
          L     IJML4&CL1,IJMX&CL1     GET BLKSIZE-1                    14150000
          AH    IJML4&CL1,IJMON&CL1    BUMP IT TO BLKZIZE               14200000
          A     IJML4&CL1,IJMY&CL1     BUMP TO END OF IOAREA            14250000
          ST    IJML4&CL1,IJMPT&CL1    STORE IT IN PTR                  14300000
IJMBD&CL1 EQU  *                                                        14350000
         AIF ('&RECFM' NE 'FIXBLK').F0G                                 14400000
         TM    IJM2&CL1+1,IJMLT&CL1  Q. CHAN ERR AND WLR                14450000
         AGO   .F0G2                                                    14500000
.F0G     TM    IJM2&CL1+1,IJML1&CL1    TEST FOR CHAN ERRORS         3-6 14550000
.F0G2    BM    IJME3&CL1               YES, GO CALCULATE REC NO.        14600000
          TM    IJM2&CL1,IJMUE&CL1     TEST UNIT CHECK + EXCEP          14650000
          BM    IJME3&CL1              YES, GO CALC RECORD NUMBER       14700000
IJMBQ&CL1 EQU  *                                                    3-1 14750000
          AIF   ('&ZIWB' EQ 'W' OR '&ZIWB' EQ 'Z').F0F                  14800000
          L     IJML4&CL1,IJMO&CL1     SWAP CCW ADDRS                   14850000
          L     IJML3&CL1,IJMP&CL1                                      14900000
          ST    IJML3&CL1,IJMO&CL1     PUT ADDR2 IN ADDR1               14950000
          ST    IJML4&CL1,IJMP&CL1     PUT ADDR1 IN ADDR2               15000000
          L     IJML4&CL1,IJMY&CL1     SWAP I/O AREAS                   15050000
          L     IJML3&CL1,IJMM&CL1                                      15100000
          ST    IJML3&CL1,IJMY&CL1     IO2 IN IO1                       15150000
          ST    IJML4&CL1,IJMM&CL1     IO1 IN IO2                       15200000
          B     IJMBE&CL1              GO BLANK I/O AREA                15250000
.F0F      ANOP                                                          15300000
IJMBA&CL1 B     IJMTG&CL1              BRANCH OUT 2ND TIME              15350000
          LH    IJML3&CL1,IJMRC&CL1    GET THE RECORD CTR               15400000
          AH    IJML3&CL1,IJMON&CL1    BUMP IT BY ONE                   15450000
          STH   IJML3&CL1,IJMRC&CL1    PUT BACK IN RECORD CTR           15500000
          CH    IJML3&CL1,IJMP1&CL1    NEED ANOTHER RECORD              15550000
          AIF   ('&ZIWB' EQ 'W' OR '&ZIWB' EQ 'Z').F0E1                 15600000
          BH    IJMBM&CL1              YES                              15650000
.F0E1     AIF   ('&ZIWB' EQ 'B' OR '&ZIWB' EQ 'I').F0E2             3-6 15700000
          BH    IJMBE&CL1              YES                              15750000
.F0E2     MVI   IJMBA&CL1+1,IJMLH&CL1  TURN ON BRANCH FOR 2ND TIME  3-6 15800000
          MVI   IJMBU&CL1+1,IJMLI&CL1  SET TO NO-OP                 4-0 15850000
          CH    IJML3&CL1,IJMER&CL1    IS THIS AN ERROR RECORD          15900000
          BE    IJMBT&CL1              YES                          4-0 15950000
          B     IJMTG&CL1              GO BUMP LINE CTR                 16000000
IJME3&CL1 L     IJML3&CL1,IJM6&CL1     GET THE CCW ADDR                 16050000
          AH    IJML3&CL1,IJMEI&CL1    BUMP CCW ADDR BY 8               16100000
          L     IJML4&CL1,IJMO&CL1     GET FIRST CCW ADDR               16150000
          SR    IJML3&CL1,IJML4&CL1                                     16200000
          SLL   IJML3&CL1,4                                             16250000
          SRL   IJML3&CL1,8            CALC THE RECORD NUMBER           16300000
          LA    IJML4&CL1,0            GET ZERO FOR COMP                16350000
          CH    IJML4&CL1,IJMER&CL1    IS THE ERROR BEING RETRIED       16400000
          BL    IJME4&CL1              YES, GO CHECK FOR SAME ERR       16450000
          STH   IJML3&CL1,IJMER&CL1    SAVE THE RECORD NUMBER           16500000
          B     IJMBA&CL1              GO PROCESS RECORD                16550000
IJME4&CL1 CH    IJML3&CL1,IJMER&CL1    IS IT SAME ERROR                 16600000
          BE    IJMBT&CL1              YES, GO RETRY                4-0 16650000
          STH   IJML3&CL1,IJMER&CL1    NO, SAVE RECORD NUMBER           16700000
          B     IJMTG&CL1              GO BUMP LINE CTR                 16750000
         AGO   .F20                                                 3-5 16800000
.F9A1     ANOP                                                          16850000
*                                                                       16900000
*  START OF DSPLY MOD                                                   16950000
*                                                                       17000000
IJMDY&CL1 ST    1,IJMS3&CL1  SAVE CCB POINTER                           17050000
          STM   IJML3&CL1,IJML4&CL1,IJMS2&CL1  SAVE REG 13 & 14         17100000
          MVC   IJMCC&CL1,IJM4&CL1  SAVC CCW ADDR                       17150000
          NI    IJMZ&CL1,IJMLI&CL1  ZERO COMMD CODE                     17200000
          L     IJML3&CL1,IJMZ&CL1  LOAD IO AREA ADDR REG 13            17250000
          LH    IJML4&CL1,IJMZ&CL1+6  LOAD REG 14 WITH BYTE COUNT       17300000
          SH    IJML4&CL1,IJMON&CL1  DECREMENT REG 14 BY ONE            17350000
          SR    IJML3&CL1,IJML4&CL1  SUB REG 14 FROM 13                 17400000
          ST    IJML3&CL1,IJMZ&CL1                                      17450000
          MVI   IJMZ&CL1,IJMLE&CL1  PUT RD FRD COMMD IN CCW             17500000
          NI    IJMZ&CL1+4,IJMLJ&CL1   TURN OFF CHAINING BIT            17550000
          STC   IJML4&CL1,IJMDL&CL1+1  MOVE LENGTH TO BLANK INST        17600000
          LR    IJML4&CL1,1  PUT DTF ADDR IN REG 14                     17650000
          LA    IJML4&CL1,88(IJML4&CL1)  POINT TO CCW IN DTF            17700000
IJMDL&CL1 XC    0(0,IJML3&CL1),0(IJML3&CL1)  BLNK IO AREA               17750000
         MVI   IJMK&CL1,IJMLI&CL1  ZERO ERROR INDICATOR BYTE        3-1 17800000
          ST    IJML4&CL1,IJM4&CL1  STORE CCW ADDR IN CCB               17850000
          LA    1,24(1)  POINT TO ACTUAL CCB                            17900000
          SVC   IJML7&CL1  EXCP - DSPLY                                 17950000
          TM    IJM5&CL1,IJML8&CL1  TEST IO COMPLETE                    18000000
          BO    *+6  NO,WAIT                                            18050000
          SVC   7  WAIT                                                 18100000
          L     1,IJMS3&CL1  RESTORE REG 1                              18150000
          TM    IJM2&CL1,IJMLF&CL1  TEST UNIT EXCPTION                  18200000
          BO    IJMDR&CL1  YES RE-EXCP UPDATE CCW ADDR FIRST            18250000
          TM    IJM2&CL1,IJMLE&CL1     TEST UNIT CHECK                  18300000
          BZ    IJMD1&CL1              NO, GO CHECK WLR                 18350000
         TM    IJM00&CL1,IJML9&CL1     Q- INTERV REQ ON            3-10 18400000
         BO    IJMTY&CL1               YES, RETRY                  3-10 18450000
         TM    IJM00&CL1,IJML8&CL1     COMMAND REJECT               3-5 18500000