* %       GOTO OSASKIP;                                                 00001000
*/********************************************************************/ 00002000
*/*                                                                  */ 00003000
*/* MACRO: OSAPL                                                     */ 00004000
*/*                                                                  */ 00005000
*/* COPYRIGHT                                                        */ 00006000
*/*                                                                  */ 00007000
*/*         LICENSED MATERIALS - PROPERTY OF IBM                     */ 00008000
*/*         "RESTRICTED MATERIALS OF IBM"                            */ 00009000
*/*         5686-066 (C) COPYRIGHT IBM CORP. 2002                    */ 00010019
*/*         SEE COPYRIGHT INSTRUCTIONS                               */ 00011000
*/*                                                                  */ 00012000
*/*                                                                  */ 00013000
*/*                                                                  */ 00014000
*/* FUNCTION: DESCRIBES LAYOUT OF PARAMETERLIST PASSED BETWEEN       */ 00015000
*/*           TCP/IP AND OSA EXPRESS DEVICE DRIVER DURING INIT       */ 00016000
*/*           FUNCTION                                               */ 00016100
*/*                                                                  */ 00017000
*/* @D66EDMZ:                                                        */ 00018018
*/*                                                                  */ 00019000
*/********************************************************************/ 00020000
*/* A - 000000-999999                                                */ 00030000
*/*                                                                     00040000
         MACRO                                                          00050000
&NAME    OSAPL                                                          00060000
         AIF   (T'&NAME EQ 'O').NONAME                                  00070000
&NAME    DSECT                                                          00080000
         AGO   .NAME                                                    00090000
.NONAME  ANOP                                                           00100000
OSAPL    DSECT                                                          00110000
.NAME    ANOP                                                           00111000
OSA_CUU1      DS  H                READ CHANNEL                         00120010
OSA_CUU2      DS  H                WRITE CHANNEL (FOR QDIO IT MUST      00130010
*                                  BE OSA_CUU1 + 1)                     00131010
OSA_CUU3      DS  H                CUU NUMBER OF DATA CHANNEL           00140006
OSA_DEFQ      DS  X                DEFAULT QUEUE {1|2|3|4}              00141006
*                                  NOT EVALUATED                        00142012
OSA_ROUTER    DS  X                ROUTING TYPE                         00160006
OSA_NOROUTER  EQU 0                TCP/IP IS NO ROUTER (DEFAULT)        00161006
OSA_PROUTER   EQU 1                TCP/IP IS PRIMARY ROUTER             00162006
OSA_SROUTER   EQU 2                TCP/IP IS SECONDARY ROUTER           00163006
OSA_PRIOQUE   DS  X                PRIORITY QUEUEING                    00164006
OSA_NOPRQUE   EQU 0                NO PRIORITY QUEUEING (DEFAULT)       00165006
*                                  ONLY DEFAULT IS SUPPORTED            00165103
OSA_PRIOPREC  EQU 1                PRIORITY QUEUEING                    00168006
OSA_PRIOTOS   EQU 2                PRIORITY QUEUEING                    00168106
OSA_CHECKSUM  DS  X                CHECKSUMMING                         00169006
*                                  ONLY DEFAULT (0) SUPPORTED           00169103
OSA_NOCHKSUM  EQU 0                NO CHECKSUMMING (DEFAULT)            00169206
OSA_HWCHKSUM  EQU 1                HARDWARE CHECKSUMMING                00169306
OSA_SWCHKSUM  EQU 2                SOFTWARE CHECKSUMMING                00169406
OSA_TID       DS  H                TASK ID TO BE POSTED IN CASE OF      00169513
*                                  RECEIVE OR ERROR                     00169613
OSA_IPDEF     DS  XL80             10 IP DEFINITIONS, EACH DEFINITION   00169713
*                                  CONSISTS OF                          00169813
*                                  4 BYTE IPADDR, 4BYTE NET MASK        00169913
OSA_IPEND     DS  F                END INDICATIR (0)                    00170013
OSA_RECECB    DS  F                ADDRESS OF RECEIVE ECB               00170113
OSA_ERRECB    DS  F                ADDRESS OF ERROR ECB                 00170213
OSA_ERRCODE   DS  F                ADDRESS OF FIELD CONTAINING ERROR    00170313
*                                  CODE (SET BY OSAE DEVICE DRIVER)     00170413
OSA_PORTNAME  DS  CL8              OSA EXPRESS ADAPTER'S PORTNAME       00170515
*                                  IF BLANK WE DO NOT USE PORTNAME      00170615
OSA_DUMPLIST  DS  A                PTR TO LIST OF AREAS TO BE DUMPED    00170718
OSA_MTU       DS  F                MTU SIZE(IQDIO), ZERO FOR QDIO       00170821
              DS  XL4              RESERVED FOR FUTURE USE              00170921
              MEND                                                      00171011
*      */                                                               00180000
* %OSASKIP:  ;                                                          00190004
*DCL 1  OSAPL BASED,                                                    00200009
*     2 OSA_CUU1 FIXED(15),       /* CUU NUMBER OF READ CHANNEL      */ 00210004
*     2 OSA_CUU2 FIXED(15),       /* CUU NUMBER OF WRITE CHANNEL     */ 00211004
*     2 OSA_CUU3 FIXED(15),       /* CUU NUMBER OF DATA CHANNEL      */ 00212004
*     2 OSA_DEFQ  FIXED(8),       /* DEFAULT QUEUE {1|2|3|4}         */ 00216004
*     2 OSA_ROUTER FIXED(8),      /* ROUTING TYPE                    */ 00217004
*     2 OSA_PRIOQUE FIXED(8),     /* PRIORITY QUEUEING               */ 00218004
*     2 OSA_CHECKSUM FIXED(8),    /* CHECKSUMMING                    */ 00219004
*     2 OSA_TID   FIXED(15),      /* TASK TO BE POSTED IF DATA ARE TO   00219113
*                                    BE RECEIVED OR ERROR            */ 00219213
*     2 OSA_IPDEF(10),            /* MAX 10 IP DEFINITION            */ 00220013
*       3 OSA_IPADDR FIXED(31),   /* IP ADDRESS                      */ 00220113
*       3 OSA_NETMASK FIXED(31),  /* NET MASK                        */ 00220213
*     2 OSA_IPEND FIXED(31),      /* END INDICATOR (0)               */ 00221013
*     2 OSA_RECECB PTR(31),       /* ADDRESS OF RECEIVE ECB          */ 00230004
*      3 OSA_RECBL BIT(1),        /* LIST SPECIFIED                  */ 00230120
*      3 OSA_RECBA BIT(31),       /* ADDRESS PORTION                 */ 00230220
*     2 OSA_ERRECB PTR(31),       /* ADDRESS OF ERROR ECB            */ 00230320
*     2 OSA_ERRCODE PTR(31),      /* A(FIELD CONTAINING ERROR CODE)  */ 00230420
*     2 OSA_PORTNAME CHAR(8),     /* OSA ADAPTER PORTNAME            */ 00250015
*     2 OSA_DUMPLIST PTR(31),     /* PTR TO LIST OF AREAS TO BE DUMP.*/ 00251018
*     2 OSA_MTU      FIXED(31),   /* MTU SIZE(IQDIO), ZERO FOR MTU   */ 00252021
*     2 *            CHAR(4);     /* RESERVED FOR FUTURE USE         */ 00260022
* DECLARE                                                               00270005
*     OSA_NOROUTER BIT(8) CONSTANT('00'X),/* TCPIP IS NO ROUTER(DEF) */ 00271007
*     OSA_PROUTER  BIT(8) CONSTANT('01'X),/* TCPIP IS PRIM. ROUTER   */ 00271107
*     OSA_SROUTER  BIT(8) CONSTANT('02'X);/* TCPIP IS SEC.  ROUTER   */ 00271207
* DECLARE                                                               00271305
*     OSA_NOPRQUE  BIT(8) CONSTANT('00'X),/*NO PRIORITY QUEUEING(DEF)*/ 00271407
*     OSA_PRIOPREC BIT(8) CONSTANT('01'X),/*PRIORITY QUEUEING PREC   */ 00271507
*     OSA_PRIOTOS  BIT(8) CONSTANT('02'X);/*PRIORITY QUEUEING TOS    */ 00271607
* DECLARE                                                               00271705
*     OSA_NOCHKSUM BIT(8) CONSTANT('00'X),/*NO CHECKSUMMING (DEFAULT)*/ 00271807
*     OSA_HWCHKSUM BIT(8) CONSTANT('01'X),/*HARDWARE CHECKSUMMING    */ 00271907
*     OSA_SWCHKSUM BIT(8) CONSTANT('02'X);/*SOFTWARE CHECKSUMMING    */ 00272007
