         MACRO                                                          00001003
&NAME    PACCNT &ALL=,&READER=,&LIST=,&PUNCH=,&EXEC=,                  C00002003
               &BSC=,&SNA=,&SYS=,&SYSID=,&RECV=,                       C00003003
               &PNET=,&TRANS=,                                 @D03PIPE*00004003
               &AFP=,                                          @D52ADAT*00005003
               &XCONN=,&XSPOOL=                                @D22BDWS 00006003
.*                                                                      00007003
.* IBM DISK OPERATING SYSTEM                                            00008003
.* VSE/POWER - 5686-CF7-03                                              00009004
.* PACCNT MACRO INSTRUCTION - DEFINE ACCOUNT RECORD                     00010003
.*                                                                      00011003
.* CHANGE ACTIVITY:                                            @DA41829 00012003
.*   CORRECT COMMENT FOR FIELD 'EXPASZ'                        @DA41829 00013003
.*   YEAR-2000 SUPPORT                                         @D61ZDAT 00014003
.*   VSE/POWER 6.1.1 TURBO DISPATCHER SHIPMENT                 @DY44055 00015003
.*   YEAR-2000 SUPPORT FINAL CORRECTIONS                       @D61ZDAT 00016003
.*   YEAR 2000 & LABELLED TAPE SUPPORT FOR VSE/POWER 6.1.2     @DY44177 00017003
.*   CLARIFY NORMAL AND EXTRA LINES OR PAGES IN LST-ACC-REC    @D66QDAT 00018003
.*   EXTEND LST/PUN ACCOUNT RECORD WITH BLDG, ROOM, NAME,...   @DY45747 00018103
.*   VERSION 7.1 UPGRADE                                       @D71QDAT 00018204
.*                                                                      00018304
         LCLB  &R                  READER SPECIFIED                     00018404
         LCLB  &L                  LIST SPECIFIED                       00018504
         LCLB  &P                  PUNCH SPECIFIED                      00018604
         LCLB  &B                  BSC SPECIFIED                        00018704
         LCLB  &S                  SNA SPECIFIED                        00018804
         LCLB  &E                  EXEC SPECIFIED                       00018904
         LCLB  &N                  PNET SPECIFIED              @D03PIPE 00019004
         LCLB  &Y                  SYS (STARTUP) SPECIFIED     @D03PIQE 00019104
         LCLB  &T                  TRANS SPECIFIED             @D03PIPE 00020003
         LCLB  &X                  RECV SPECIFIED              @D03PIPE 00021003
         LCLB  &XC                 XCONN SPECIFIED             @D22BDWS 00022003
         LCLB  &XS                 XSPOOL SPECIFIED            @D22BDWS 00023003
         LCLB  &A                  AFP SPECIFIED               @D52ADAT 00024003
         LCLB  &V                  VALID ENTRY                          00025003
.*                                                                      00026003
         AGO   .ZZZ                                                     00027003
*        LICENSED MATERIALS - PROPERTY OF IBM                           00028003
*        THIS MACRO IS "RESTRICTED MATERIALS OF IBM"                    00029003
*        5686-CF7 (C) COPYRIGHT IBM CORP. 1979, 1996                    00030004
*        SEE COPYRIGHT INSTRUCTIONS                                     00031003
.ZZZ     ANOP                                                           00032003
.*                                                                      00033003
         AIF   ('&ALL' NE 'YES').A1  BRANCH IF NOT ALL=YES SPECIFIED    00034003
.*                                                                      00035003
.*       ALL=YES IS SPECIFIED SO SET ALL THE BITS ON FOR THE            00036003
.*       DIFFERENT RECORD TYPES                                         00037003
.*                                                                      00038003
&R       SETB  1                   READER REQUIRED                      00039003
&L       SETB  1                   LIST REQUIRED                        00040003
&P       SETB  1                   PUNCH REQUIRED                       00041003
&E       SETB  1                   EXECUTION REQUIRED                   00042003
&B       SETB  1                   BSC REQUIRED                         00043003
&S       SETB  1                   SNA REQUIRED                         00044003
&N       SETB  1                   PNET REQUIRED               @D03PIPE 00045003
&Y       SETB  1                   STARTUP REQUIRED            @D03PIPE 00046003
&T       SETB  1                   TRANSMITTER REQUIRED        @D03PIPE 00047003
&X       SETB  1                   RECEIVER REQUIRED           @D03PIPE 00048003
&XC      SETB  1                   CONNECTION REQUIRED         @D22BDWS 00049003
&XS      SETB  1                   SPOOL REQUIRED              @D22BDWS 00050003
&A       SETB  1                   AFP REQUIRED                @D52ADAT 00051003
&V       SETB  1                   VALID ENTRY RECEIVED                 00052003
         AGO   .PRINT              GO TO PRINT OUT DSECTS               00053003
.*                                                                      00054003
.A1      ANOP                                                           00055003
         AIF   ('&READER' NE 'YES').B1 READER NOT EQUAL YES             00056003
.*                                                                      00057003
&R       SETB  1                   SET READER REQUIRED                  00058003
&V       SETB  1                   VALID ENTRY                          00059003
.*                                                                      00060003
.B1      ANOP                                                           00061003
         AIF   ('&LIST' NE 'YES').C1 LIST NOT EQUAL YES                 00062003
.*                                                                      00063003
&L       SETB  1                   SET LIST REQUIRED                    00064003
&V       SETB  1                   VALID ENTRY                          00065003
.*                                                                      00066003
.C1      ANOP                                                           00067003
         AIF   ('&PUNCH' NE 'YES').D1 PUNCH NOT EQUAL YES               00068003
.*                                                                      00069003
&P       SETB  1                   SET PUNCH REQUIRED                   00070003
&V       SETB  1                   VALID ENTRY                          00071003
.*                                                                      00072003
.D1      ANOP                                                           00073003
         AIF   ('&EXEC' NE 'YES').E1 EXEC NOT EQUAL YES                 00074003
.*                                                                      00075003
&E       SETB  1                   SET EXECUTION REQUIRED               00076003
&V       SETB  1                   VALID ENTRY                          00077003
.*                                                                      00078003
.E1      ANOP                                                           00079003
         AIF   ('&BSC' NE 'YES').F1 BSC NOT EQUAL YES                   00080003
.*                                                                      00081003
&B       SETB  1                   SET BSC REQUIRED                     00082003
&V       SETB  1                   VALID ENTRY                          00083003
.*                                                                      00084003
.F1      ANOP                                                           00085003
         AIF   ('&SNA' NE 'YES').G1 SNA NOT EQUAL YES                   00086003
.*                                                                      00087003
&S       SETB  1                                                        00088003
&V       SETB  1                   VALID ENTRY                          00089003
.*                                                                      00090003
.G1      ANOP                                                  @D03PIPE 00091003
         AIF   ('&PNET' NE 'YES').H1 PNET NOT EQUAL YES        @D03PIPE 00092003
.*                                                                      00093003
&N       SETB  1                                               @D03PIPE 00094003
&V       SETB  1                   VALID ENTRY                 @D03PIPE 00095003
.*                                                                      00096003
.H1      ANOP                                                  @D03PIQE 00097003
         AIF   ('&SYS' NE 'YES').J1 SYS NOT EQUAL YES          @D03PIPE 00098003
.*                                                                      00099003
&Y       SETB  1                                               @D03PIQE 00100003
&V       SETB  1                   VALID ENTRY                 @D03PIQE 00101003
.*                                                                      00102003
.J1      ANOP                                                  @D03PIQE 00103003
         AIF   ('&TRANS' NE 'YES').K1 TRANS NOT EQUAL YES      @D03PIPE 00104003
.*                                                                      00105003
&T       SETB  1                                               @D03PIQE 00106003
&V       SETB  1                   VALID ENTRY                 @D03PIQE 00107003
.*                                                                      00108003
.K1      ANOP                                                  @D03PIQE 00109003
         AIF   ('&RECV' NE 'YES').L1 TRANS NOT EQUAL YES       @D03PIPE 00110003
.*                                                                      00111003
&X       SETB  1                                               @D03PIQE 00112003
&V       SETB  1                   VALID ENTRY                 @D03PIQE 00113003
.*                                                                      00114003
.L1      ANOP                                                           00115003
         AIF   ('&XCONN' NE 'YES').M1 XCONN NOT EQUAL YES      @D22BDWS 00116003
.*                                                                      00117003
&XC      SETB  1                                               @D22BDWS 00118003
&V       SETB  1                   VALID ENTRY                 @D22BDWS 00119003
.*                                                                      00120003
.M1      ANOP                                                           00121003
         AIF   ('&XSPOOL' NE 'YES').N1 XSPOOL NOT EQUAL YES    @D22BDWS 00122003
.*                                                                      00123003
&XS      SETB  1                                               @D22BDWS 00124003
&V       SETB  1                   VALID ENTRY                 @D22BDWS 00125003
.*                                                                      00126003
.N1      ANOP                                                           00127003
         AIF   ('&AFP' NE 'YES').O1 AFP NOT EQUAL YES          @D52ADAT 00128003
.*                                                                      00129003
&A       SETB  1                   SET AFP REQUIRED            @D52ADAT 00130003
&V       SETB  1                   VALID ENTRY                 @D52ADAT 00131003
.*                                                                      00132003
.O1      ANOP                                                           00133003
.PRINT   ANOP                                                           00134003
         AIF   (&V).HEADER                                              00135003
.*                                                                      00136003
.*       NO VALID INPUT HAS BEEN RECEIVED SO ISSUE MNOTE AND EXIT       00137003
.*                                                                      00138003
         MNOTE 8,'NO VALID PARAMETER OR NO RECORD TYPE SELECTED AT ALL' 00139003
.*                                                             @D52ADAT 00140003
         MEXIT                                                          00141003
.*                                                                      00142003
.HEADER  ANOP                                                           00143003
         TITLE 'VSE/POWER ACCOUNT RECORD LAYOUTS'                       00144003
&NAME    DSECT                                                          00145003
ACBEG    DS    0H                  START OF ACCOUNT RECORD              00146003
.*                                                                      00147003
         AIF   ('&SYSID' NE 'YES').FIXP                                 00148003
.*                                                                      00149003
         SPACE 3                                                        00150003
*********************************************************************** 00151003
*                                                                     * 00152003
*              ACCOUNT RECORD PREFIX                                  * 00153003
*                                                                     * 00154003
*********************************************************************** 00155003
         SPACE 1                                                        00156003
ACSYSID  DC    CL1'0'              SYSTEM ID                            00157003
ACTYPE   DC    CL2'0'              RECORD TYPE AND VERSION              00158003
ACCOMP   DC    CL8'5686CF7'        COMPONENT-ID                @D71QDAT 00159004
         DC    CL5' '              RESERVED                             00160003
ACPRFXL  EQU   *-ACSYSID           LENGTH OF PREFIX                     00161003
.*                                                                      00162003
.FIXP    ANOP                                                           00163003
.*                                                                      00164003
ACBEGA   DS    0H                  START OF FIXED PART         @DA37136 00165003
.*                                                                      00166003
         SPACE 1                                                        00167003
*********************************************************************** 00168003
*                                                                     * 00169003
*              FIXED PART OF THE ACCOUNT RECORDS                      * 00170003
*                                                                     * 00171003
*********************************************************************** 00172003
         SPACE 1                                                        00173003
*        THIS COMMON PART IS VALID FOR ALL ACCOUNT RECORDS WITH THE     00174003
*        EXCEPTION OF:                                                  00175003
*         -    RJE/BSC, RJE/SNA AND PNET ACCOUNT RECORD                 00176003
*         -    VSE/POWER START UP ACCOUNT RECORD                        00177003
*         -    X-PARTITION CONNECTION ACCOUNT RECORD                    00178003
*         -    X-PARTITION SPOOL ACCOUNT RECORD                         00179003
         SPACE 1                                                        00180003
ACDATE   DC    CL8'DD/MM/YY'       DATE OF RECORD (ALSO MM/DD/YY)       00181003
ACSTRT   DC    PL4'0'              START TIME (0HHMMSSF)                00182003
ACSTOP   DC    PL4'0'              STOP TIME (0HHMMSSF)                 00183003
ACUSER   DC    CL16'USER INFO'     USER INFORMATION                     00184003
ACNAME   DC    CL8'JOB NAME'       VSE/POWER JOB NAME                   00185003
ACNUMB   DC    BL2'0000'           VSE/POWER JOB NUMBER (BINARY)        00186003
ACIDEN   DC    CL1' '              RECORD IDENTIFIER                    00187003
*                                  R = READER RECORD                    00188003
*                                  L = LIST RECORD                      00189003
*                                  P = PUNCH RECORD                     00190003
*                                  E = EXECUTION RECORD                 00191003
*                                  T = BSC RECORD                       00192003
*                                  S = SNA RECORD                       00193003
*                                  V = RECEIVER                         00194003
*                                  M = TRANSMITTER                      00195003
*                                  U = SYSTEM STARTUP                   00196003
*                                  N = NETWORK                          00197003
*                                  X = SPOOL RECORD            @D22BDWS 00198003
*                                  C = CONNECTION RECORD       @D22BDWS 00199003
*                                  A = AFP RECORD              @D52ADAT 00200003
ACCANC   DC    BL1'0'              VSE/POWER CANCEL CODE (BINARY)       00201003
ACCNCNM  EQU   X'10'               .. NORMAL END OF JOB        @D22BDWS 00202003
ACCNCCC  EQU   X'20'               .. PCANCEL WAS ISSUED       @D22BDWS 00203003
ACCNCSP  EQU   X'30'               .. PSTOP   WAS ISSUED       @D22BDWS 00204003
ACCNCFL  EQU   X'40'               .. PFLUSH  WAS ISSUED       @D22BDWS 00205003
ACCNCDL  EQU   X'50'               .. PDELETE OR PURGE ISSUED  @D22BDWS 00206003
ACCNCRX  EQU   X'60'               .. FLUSHED BY USER EXIT     @D51TDTR 00207003
ACCNCIO  EQU   X'70'               .. CANCELED DUE TO I/O ERROR@D22BDWS 00208003
ACCNCRC  EQU   X'80'               .. PNET RECEIVER CANCEL     @D22BDWS 00209003
ACCNCQT  EQU   X'90'               .. QUIT  REQUEST FROM X-PART@D22BDWS 00210003
ACCNCSE  EQU   X'A0'               .. CANCELED DUE TO SEV ERROR@D22BDWS 00211003
ACCNCCL  EQU   X'B0'               .. GET_CLOSE REQ FROM X-PART@D22BDWS 00212003
ACCNCSR  EQU   X'C0'               .. CANCELED DUE TO SOD      @D22BDWS 00213003
ACCNCPF  EQU   X'D0'               .. PRINTING/PUNCHING FAILED @D23ADWS 00214003
ACFLG1   DC    BL1'0'              ACCOUNT FLAG BYTE 1         @D61ZDAT 00215003
ACF1CE20 EQU   X'80'               'ON'  - YEAR ACDATE IS 20YY @D61ZDAT 00216003
*                                  'OFF' - YEAR ACDATE IS 19YY @D61ZDAT 00217003
         SPACE 1                                                        00218003
ACEND    EQU   *                   END OF COMMON PART                   00219003
ACLEN    EQU   *-ACDATE            LENGTH OF COMMON PART       @D22BDWS 00220003
.*                                                                      00221003
         AIF   (NOT &R).TRYLST     IF READER NOT SPECIFIED              00222003
.*                                                                      00223003
         SPACE 3                                                        00224003
*********************************************************************** 00225003
*                                                                     * 00226003
*        FIELDS SPECIFIC FOR THE READER ACCOUNT RECORDS               * 00227003
*                                                                     * 00228003
*********************************************************************** 00229003
         SPACE 1                                                        00230003
         ORG   ACEND               SET ORIGIN                           00231003
RDRADD   DC    CL3'CUU'            READER DEVICE ADDR. 'SNA' OR 'PSP'   00232003
RDRFRM   DC    BL1'0'              FROM REMOTE ID                       00233003
         DC    BL1'0'              RESERVED                    @D22BDWS 00234003
RDRICL   DC    CL1'C'              INPUT CLASS                          00235003
RDRIPR   DC    CL1'P'              INPUT PRIORITY                       00236003
RDRNUM   DC    F'0'                NUMBER OF RECORDS READ               00237003
RDRTRK   DC    H'0'                NUMBER OF DBLK GROUP USED   @D23CDWS 00238003
RDRNODE  DC    CL8' '              LOCAL NODE NAME             @D22BDWS 00239003
RDRFRUS  DC    CL8' '              'FROM' USER ID              @D22BDWS 00240003
RDRACCT  DC    CL8' '              NETWORK ACCOUNT NUMBER      @DC1CDIR 00241003
RDRLNG   EQU   *-ACBEG             LENGTH OF READER ACCOUNT RECORD      00242003
.*                                                                      00243003
.TRYLST  ANOP                                                           00244003
         AIF   (NOT &L).TRYPUN                                          00245003
.*                                                                      00246003
         SPACE 3                                                        00247003
*********************************************************************** 00248003
*                                                                     * 00249003
*        FIELDS SPECIFIC FOR LIST ACCOUNT RECORDS                     * 00250003
*                                                                     * 00251003
*********************************************************************** 00252003
         SPACE 1                                                        00253003
         ORG   ACEND               SET ORIGIN                           00254003
LSTADR   DC    CL3'CUU'            PRINTER DEVICE ADDR. 'SNA' OR 'GSP'  00255003
LSTFRM   DC    BL1'0'              FROM REMOTE ID                       00256003
LSTTO    DC    BL1'0'              TO REMOTE ID                         00257003
LSTOCL   DC    CL1'C'              PRINTED OUTPUT CLASS                 00258003
LSTOPR   DC    CL1'P'              PRINTED OUTPUT PRIORITY              00259003
LSTNUM   DC    F'0'                NUMBER OF LINES PRINTED FOR @D66QDAT 00260003
*                                  1ST OR ONLY COPY COMPRISING @D66QDAT 00261003
*                                  - TOTAL Q-ENTRY (CANC=X'10')@D66QDAT 00262003
*                                  - PART. Q-ENTRY (CANC¬X'10')@D66QDAT 00263003
*                                  SEE 'LSTEXR' FOR ADDITIONAL @D66QDAT 00264003
LSTTRK   DC    H'0'                NUMBER OF DBLK GROUP USED   @D23CDWS 00265003
LSTSUF   DC    BL1'0'              JOB SUFFIX NUMBER                    00266003
LSTCOP   DC    BL1'0'              NUMBER OF PRINTED COPIES    @D66QDAT 00267003
*                                  - ONLY 'COMPLETES' COUNTED  @D66QDAT 00268003
LSTFOR   DC    CL4' '              FORMS IDENTIFICATION                 00269003
LSTEXR   DC    F'0'                NUMBER EXTRA LINES PRINTED  @D66QDAT 00270003
*                                  IN ADDITION TO 'LSTNUM' FOR @D66QDAT 00271003
*                                  - PRESTART COMMAND, AND     @D66QDAT 00272003
*                                  - PSETUP COMMAND, AND       @D66QDAT 00273003
*                                  - SEPARATOR PAGES, AND      @D66QDAT 00274003
*                                  - COMPLETE COPIES 2,3,...,N @D66QDAT 00275003
*                                  - INCOMPLETE C.(CANC¬X'10') @D66QDAT 00276003
LSTPAG   DC    H'0'                NUMBER OF PAGES PRINTED FOR @D66QDAT 00277003
*                                  1ST OR ONLY COPY COMPRISING @D66QDAT 00278003
*                                  - TOTAL Q-ENTRY (CANC=X'10')@D66QDAT 00279003
*                                  - PART. Q-ENTRY (CANC¬X'10')@D66QDAT 00280003
*                                  SEE 'LSTEXP' FOR ADDITIONAL,@D66QDAT 00281003
*                                  IF > 65535, USE 'LSTPGN'  !!@D66QDAT 00282003
LSTEXP   DC    H'0'                NUMBER OF EXTRA PAGES PRINTED        00283003
*                                  IN ADDITION TO 'LSTPAG' FOR @D66QDAT 00284003
*                                  - PRESTART COMMAND, AND     @D66QDAT 00285003
*                                  - PSETUP COMMAND, AND       @D66QDAT 00286003
*                                  - SEPARATOR PAGES, AND      @D66QDAT 00287003
*                                  - COMPLETE COPIES 2,3,...,N @D66QDAT 00288003
*                                  - INCOMPLETE C.(CANC¬X'10') @D66QDAT 00289003
*                                  IF > 65535, USE 'LSTEPGN' !!@D66QDAT 00290003
LSTFLSH  DC    CL4' '              FLASH IDENTIFICATION        @D22BDWS 00291003
LSTCPYG  DC    XL8'00'             COPY GROUPINGS              @D22BDWS 00292003
LSTNODE  DC    CL8' '              LOCAL NODE NAME             @D22BDWS 00293003
LSTTOUS  DC    CL8' '              'TO' USER ID                @D22BDWS 00294003
LSTFRNO  DC    CL8' '              'FROM' NODE NAME            @D22BDWS 00295003
LSTFRUS  DC    CL8' '              'FROM' USER ID              @D22BDWS 00296003
LSTOJ#   DC    BL2'0'              ORIGINAL JOB NUMBER         @D22BDWS 00297003
LSTACCT  DC    CL8' '              NETWORK ACCOUNT NUMBER      @DC1CDWS 00298003
LSTRINS  DC    F'0'                RECORDS INSERTED BY OUTEXIT @DC1EDIR 00299003
LSTRDEL  DC    F'0'                RECORDS DELETED BY OUTEXIT  @DC1EDIR 00300003
LSTPGN   DC    F'0'                NUMBER OF PAGES PRINTED     @D52LDIR 00301003
LSTEPGN  DC    F'0'                NO. OF EXTRA PAGES PRINTED  @D52LDIR 00302003
LSTPGRNM DC    CL20' '             PROGRAMMER NAME             @DY45747 00303003
LSTBLDG# DC    CL8' '              PROGRAMMER BUILDING NO.     @DY45747 00304003
LSTROOM# DC    CL8' '              PROGRAMMER ROOM NO.         @DY45747 00305003
LSTDEPT# DC    CL8' '              PROGRAMMER DEPARTMENT NO.   @DY45747 00306003
LSTDIST  DC    CL8' '              DISTRIBUTION CODE           @DY45747 00307003
LSTLNG   EQU   *-ACBEG             LENGTH OF LIST ACCOUNT RECORD        00308003
.*                                                                      00309003
.TRYPUN  ANOP                                                           00310003
         AIF   (NOT &P).TRYEXEC                                         00311003
.*                                                                      00312003
         SPACE 3                                                        00313003
*********************************************************************** 00314003
*                                                                     * 00315003
*        FIELDS SPECIFIC FOR PUNCH ACCOUNT RECORDS                    * 00316003
*                                                                     * 00317003
*********************************************************************** 00318003
         SPACE 1                                                        00319003
         ORG   ACEND               SET ORIGIN                           00320003
PUNADR   DC    CL3'CUU'            PUNCH DEVICE ADDR. 'SNA' OR 'GSP'    00321003
PUNFRM   DC    BL1'0'              FROM REMOTE ID                       00322003
PUNTO    DC    BL1'0'              TO REMOTE ID                         00323003
PUNOCL   DC    CL1'C'              PUNCHED OUTPUT CLASS                 00324003
PUNOPR   DC    CL1'P'              PUNCHED OUTPUT PRIORITY              00325003
PUNNUM   DC    F'0'                NUMBER OF RECORDS PUNCHED            00326003
PUNTRK   DC    H'0'                NUMBER OF DBLK GROUP USED   @D23CDWS 00327003
PUNSUF   DC    BL1'0'              JOB SUFFIX NUMBER                    00328003
PUNCOP   DC    BL1'0'              NUMBER OF PUNCHED COPIES             00329003
PUNFOR   DC    CL4' '              FORMS IDENTIFICATION                 00330003
PUNEXR   DC    F'0'                NUMBER EXTRA CARDS PUNCHED           00331003
PUNNODE  DC    CL8' '              LOCAL NODE NAME             @D22BDWS 00332003
PUNTOUS  DC    CL8' '              'TO' USER ID                @D22BDWS 00333003
PUNFRNO  DC    CL8' '              'FROM' NODE NAME            @D22BDWS 00334003
PUNFRUS  DC    CL8' '              'FROM' USER ID              @D22BDWS 00335003
PUNOJ#   DC    BL2'0'              ORIGINAL JOB NUMBER         @D22BDWS 00336003
PUNACCT  DC    CL8' '              NETWORK ACCOUNT NUMBER      @DC1CDWS 00337003
PUNRINS  DC    F'0'                RECORDS INSERTED BY OUTEXIT @DC1EDIR 00338003
PUNRDEL  DC    F'0'                RECORDS DELETED BY OUTEXIT  @DC1EDIR 00339003
PUNPGRNM DC    CL20' '             PROGRAMMER NAME             @DY45747 00340003
PUNBLDG# DC    CL8' '              PROGRAMMER BUILDING NO.     @DY45747 00341003
PUNROOM# DC    CL8' '              PROGRAMMER ROOM NO.         @DY45747 00342003
PUNDEPT# DC    CL8' '              PROGRAMMER DEPARTMENT NO.   @DY45747 00342103
PUNDIST  DC    CL8' '              DISTRIBUTION CODE           @DY45747 00342203
PUNLNG   EQU   *-ACBEG             LENGTH OF PUNCH ACCOUNT RECORD       00342303
.*                                                                      00342403
.TRYEXEC ANOP                                                           00342503
         AIF   (NOT &E).TRYBSC                                          00342603
.*                                                                      00342703
         SPACE 3                                                        00342803
*********************************************************************** 00342903
*                                                                     * 00343003
*        FIELDS SPECIFIC FOR EXECUTION ACCOUNT RECORDS                * 00344003
*                                                                     * 00345003
*********************************************************************** 00346003
         SPACE 1                                                        00347003
         ORG   ACEND               SET ORIGIN                           00348003
         DC    CL3' '              RESERVED                             00349003
EXFRM    DC    BL1'0'              FROM REMOTE ID                       00350003
         DC    BL1'0'              RESERVED                    @D22BDWS 00351003