         MACRO                                                          00050000
&NAME    PAGEIN &ECB=                                          @DL2982F 00100000
         GBLC  &SYSSPLV                                        @D52GDVB 00116652
         LCLA  &AL1,&AL2,&AL3                                           00133252
         LCLC  &CFCT                                           @D52GDVB 00149852
         LCLC  &CSVC                                           @D52GDVB 00166452
         LCLB  &BANY                                           @D52GDVB 00183052
.* IBM DISK OPERATING SYSTEM                                   @DL2982F 00200000
* SUPERVISOR - PAGEIN - 5686-007-06                            @D31UDRP 00250052
.************************************************************* @D31UDRP 00300000
.*                                                           *          00325052
.*       LICENSED MATERIALS - PROPERTY OF IBM                * @D31UDRP 00350052
.*       THIS MACRO IS "RESTRICTED MATERIALS OF IBM"         * @D31UDRP 00375052
.*       5686-032 (C) COPYRIGHT IBM CORP. 1977, 1992         * @D52GDVB 00400052
.*       SEE COPYRIGHT INSTRUCTIONS                          * @D31UDRP 00425052
.*                                                           *          00450052
.*************************************************************          00475052
         AIF   (N'&SYSLIST EQ 0 OR T'&SYSLIST(1) EQ 'O').ERR01 @D52GDVB 00500052
&AL2     SETA  N'&SYSLIST                                               00525052
&AL2     SETA  (&AL2/2)*2                                               00550052
&AL1     SETA  1                                                        00575052
         SPLEVEL TEST                                          @D52GDVB 00600052
         AIF   ('&SYSSPLV' NE '1').ESAFRM                      @D52GDVB 00625052
&CSVC    SETC  '87'                  SVC NUMBER PAGEIN     87  @D52GDVB 00650052
         AGO   .NAME                                           @D52GDVB 00675052
.ESAFRM  ANOP                                                  @D52GDVB 00700052
&BANY    SETB  0                     OPTION : ABOVE 16MB   80  @D52GDVB 00725052
&CFCT    SETC  '5'                   FUNCTION CODE: PAGEIN 05  @D52GDVB 00750052
&CSVC    SETC  '121'                 SVC NUMBER           121  @D52GDVB 00775052
.NAME    ANOP                                                  @D52GDVB 00800052
         AIF   (T'&NAME EQ 'O').NONAME                         @D52GDVB 00825052
&NAME    DS    0H                                              @DL2982F 00850000
.NONAME  ANOP                                                  @D52GDVB 00875052
         AIF   (T'&ECB NE 'O').ECB                             @DL2982F 00900000
         SR    0,0                 NO ECB SPECIFIED            @DL2982F 00950000
         AGO   .NOECB                                          @DL2982F 01000000
.ECB     ANOP                                                  @DL2982F 01050000
         AIF   ('&ECB'(1,1) EQ '(').L1                         @DL2982F 01100000
         L     0,=A(&ECB)          LOAD ADDR OF ECB            @DL2982F 01150000
         AGO   .L2                                             @DL2982F 01200000
.L1      ANOP                                                  @DL2982F 01250000
         AIF   ('&ECB'(2,2) EQ '0)').L2                        @DL2982F 01300000
         LR    0,&ECB(1)           LOAD ADDR OF ECB            @DL2982F 01350000
.L2      ANOP                                                  @DL2982F 01400000
.NOECB   ANOP                                                  @DL2982F 01450000
         AIF   (N'&SYSLIST EQ 1).LISTN                         @DL2982F 01500000
         CNOP  0,4                                             @DL2982F 01550000
         LA    1,*+8 .            LOAD ADDR OF LIST                     01600052
         B     *+4*(&AL2+1)+4                                  @D52GDVB 01650052
.NRANGE  ANOP                                                           01700052
         AIF   ('&SYSLIST(&AL1)'(1,1) NE '(').C1               @DM01262 01750052
         MNOTE 3,'REGISTER NOTATION FOR BEGIN OPERAND INVALID ---- END *01800052
               INDICATION GENERATED'                           @D52GDVB 01850052
         DC    X'80000000'                                     @D52GDVB 01900052
         AGO   .C2                                             @DM01262 01950052
.C1      ANOP                                                  @DM01262 02000052
         DC    A(&SYSLIST(&AL1))                                        02050052
.C2      AIF   ('&SYSLIST(&AL1+1)'(1,1) NE '(').C3             @DM01262 02100052
         MNOTE 3,'REGISTER NOTATION FOR END OPERAND INVALID ---- OPERAN*02150052
               D IGNORED'                                      @D52GDVB 02200052
         DC    A(0) .                                          @DM01262 02250052
         AGO   .C4                                             @DM01262 02300052
.C3      ANOP                                                  @DM01262 02350052
         DC    A((&SYSLIST(&AL1+1))-(&SYSLIST(&AL1)))          @DM03762 02400052
.C4      ANOP                                                  @DM01262 02450052
&AL1     SETA  &AL1+2                                                   02500052
         AIF   (N'&SYSLIST GT &AL1).NRANGE                              02550052
         AIF   (N'&SYSLIST LT &AL1).RLOCHCK                    @D52GDVB 02600052
         MNOTE 3,'ODD NUMBER OF BEGIN/END OPERAND(S) SPECIFIED ---- LAS*02650052
               T ONE IGNORED'                                  @D52GDVB 02700052
.RLOCHCK ANOP                                                  @D52GDVB 02750052
         DC    X'80000000'                                     @D52GDVB 02800052
         AGO   .CODGEN                                         @D52GDVB 02850052
.*                                                             @D52GDVB 02900052
.LISTN   AIF   ('&SYSLIST(1)'(1,1) EQ '(').R1                           02950052
         LA    1,&SYSLIST(1)                                   @D52GDVB 03000052
         AGO   .CODGEN                                         @D52GDVB 03050052
.*                                                             @D52GDVB 03100052
.R1      ANOP                                                           03150052
&AL3     SETA  K'&SYSLIST(1)                                   @D52GDVB 03200052
         AIF   ('&SYSLIST(1)'(&AL3,1) NE ')').ERR02            @D52GDVB 03250052
.*                                                             @D52GDVB 03300052
         AIF   ('&SYSLIST(1)'(2,1) EQ '1').CODGEN              @D52GDVB 03350052
         LR    1,&SYSLIST(1,1)                                          03400052
.CODGEN  ANOP                                                  @D52GDVB 03450052
         AIF   ('&SYSSPLV' EQ '1').SVCGEN                      @D52GDVB 03500052
         LA    15,&CFCT.(,0)      FUNCTION CODE                @D52GDVB 03550052
.*                                                             @D52GDVB 03600052
.SVCGEN  ANOP                                                  @D52GDVB 03650052
         SVC   &CSVC              SVC PAGEIN                   @D52GDVB 03700052
         MEXIT                                                 @D52GDVB 03750052
.*                                                             @D52GDVB 03800052
.ERR01   ANOP                                                  @D52GDVB 03850052
         MNOTE 7,'BEGIN/END OPERAND(S) MISSING OR INVALID ---- GENERATI*03900052
               ON TERMINATED'                                  @D52GDVB 03950052
         MEXIT                                                 @D52GDVB 04000052
.*                                                             @D52GDVB 04050052
.ERR02   ANOP                                                  @D52GDVB 04100052
         MNOTE 7,'RIGHT PARANTHESES IN LIST OPERAND MISSING  ---- GENER*04150052
               ATION TERMINATED'                               @D52GDVB 04200052
         MEND                                                           04250052
