         MACRO                                                          00050000
&NAME    PDUMP &START,&END,&MFG=                                        00100000
         LCLC  &IMF                                                     00150000
.*********************************************************************  00200000
.*                                                             @D31EDJO 00250000
.*   IBM DISK OPERATING SYSTEM                                 @D31EDJO 00300000
.*   SDAID - 5686 -007 - 06 - C44                              @D31EDJO 00350000
.*                                                             @D31EDJO 00400000
.*   THIS MACRO IS "RESTRICTED MATERIALS OF IBM"               @D31EDJO 00450000
.*   5686-007 (C) COPYRIGHT IBM CORP. 1977, 1989               @D31EDJO 00500000
.*   ALL RIGHTS RESERVED                                       @D31EDJO 00550000
.*   LICENSED MATERIALS-PROPERTY OF IBM                        @D31EDJO 00600000
.*   SEE COPYRIGHT INSTRUCTIONS, G120-2083                     @D31EDJO 00650000
.*                                                             @D31EDJO 00700000
.*********************************************************************  00750000
.*                                                                      00800000
* SUPERVISOR - PDUMP - 5686 - 007 - 06 - C44                   @D35XDGS 00850000
         SPACE 1                                                        00900000
.*                                                                      00950000
.* /* START OF SPECIFICATIONS ***************************************** 01000000
.*                                                                      01050000
.*01* MODULE-TYPE = SUPERVISOR GENERATION AND USER INTERFACE MACRO      01100000
.*                                                                      01150000
.*01* DECRIPTIVE NAME = PARTIAL DUMP MACRO                              01200000
.*                                                                      01250000
.*01* NOTES = CHANGE ACTIVITY                                           01300000
.*    SUPPORT OF REENTRANT PROGRAMMING                         @D35XDGS 01350000
.**** END OF SPECIFICATIONS ******************************************* 01400000
.*                                                                      01450000
         AIF   (T'&START EQ 'O' OR T'&END EQ 'O').NOLMT                 01500000
         AIF   ('&START'(1,1) EQ '(' OR '&END'(1,1) EQ '(').PAREN       01550000
&NAME    LA    1,=CL8'$$BPDUMP'                                         01600000
         LA    0,=A(&START,&END)                                        01650000
         SVC   2                                                        01700000
         MEXIT                                                          01750000
.PAREN   AIF   (T'&MFG NE 'O').DYNAMIC                         @D35XDGS 01800000
         CNOP  0,4                                                      01850000
         AIF   ('&START'(1,1) NE '(').PAREN1      END ONLY IN PAREN     01900000
         AIF   ('&END'(1,1) NE '(').PAREN2        START ONLY IN PAREN   01950000
&NAME    ST    &START(1),*+16                                           02000000
         ST    &END(1),*+16                                             02050000
         AGO   .MCGB                                                    02100000
.PAREN2  ANOP                                                           02150000
&NAME    ST    &START(1),*+12                                           02200000
         AGO   .MCGB                                                    02250000
.PAREN1  ANOP                                                           02300000
&NAME    ST    &END(1),*+16                                             02350000
.MCGB    LA    1,=CL8'$$BPDUMP'                                         02400000
         BAL   0,*+12                                                   02450000
         DC    A(&START(1))             ADDRESS 1                       02500000
         DC    A(&END(1))               ADDRESS 2                       02550000
         SVC   2                                                        02600000
         MEXIT                                                 @D35XDGS 02650000
.NOLMT   MNOTE 5,'LIMIT NOT GIVEN. MACRO IGNORED.'             @D35XDGS 02700000
         MEXIT                                                 @D35XDGS 02750000
.DYNAMIC ANOP                 ARGUMENT LIST TO BE BUILD IN     @D35XDGS 02800000
.*                            DYNAMIC STORAGE SPECIFIED VIA    @D35XDGS 02850000
.*                            MFG OPERAND                      @D35XDGS 02900000
         AIF   ('&NAME' EQ '').NONAME                          @D35XDGS 02950000
&NAME    DC    0H'0'                                           @D35XDGS 03000000
.NONAME  AIF   ('&MFG'(1,1) EQ '(').MFDYN                      @D35XDGS 03050000
&IMF     SETC  '&MFG'                                          @D35XDGS 03100000
.*                            1= A-TYPE                        @D35XDGS 03150000
         AGO   .MF1                                            @D35XDGS 03200000
.MFDYN   AIF   ('&MFG'(1,3) EQ '(S,').MFSTYP                   @D35XDGS 03250000
&IMF     SETC  '0'.'&MFG'                                      @D35XDGS 03300000
.*                            2= REGISTER                      @D35XDGS 03350000
         AGO   .MF1                                            @D35XDGS 03400000
.MFSTYP  ANOP                                                  @D35XDGS 03450000
&IMF     SETC  '&MFG'(4,K'&MFG-4)                              @D35XDGS 03500000
.*                            4= S-TYPE                        @D35XDGS 03550000
.MF1     AIF   ('&START'(1,1) EQ '(').STDYN                    @D35XDGS 03600000
         L     0,=A(&START)                                    @D35XDGS 03650000
         ST    0,&IMF                                          @D35XDGS 03700000
         AGO   .EN                                             @D35XDGS 03750000
.STDYN   ANOP                                                  @D35XDGS 03800000
         ST    &START(1),&IMF                                  @D35XDGS 03850000
.EN      AIF   ('&END'(1,1) EQ '(').ENDYN                      @D35XDGS 03900000
         L     0,=A(&END)                                      @D35XDGS 03950000
         ST    0,4+&IMF                                        @D35XDGS 04000000
         AGO   .PTRS                                           @D35XDGS 04050000
.ENDYN   ANOP                                                  @D35XDGS 04100000
         ST    &END(1),4+&IMF                                  @D35XDGS 04150000
.PTRS    ANOP                                                  @D35XDGS 04200000
         LA    0,&IMF                                          @D35XDGS 04250000
         LA    1,=CL8'$$BPDUMP'                                @D35XDGS 04300000
         SVC   2                                               @D35XDGS 04350000
         MEND                                                  @D35XDGS 04400000
