         MACRO                                                          00050000
&NAME    PFIX  ,&RLOC=,&RETURN=                                @D61NDRP 00100061
         GBLC  &SYSSPLV                                        @D52VDVB 00150052
         LCLA  &AL1,&AL2,&AL3                                           00250052
         LCLC  &CFCT                                           @D52VDVB 00255552
         LCLC  &CSVC                                           @D52VDVB 00266552
         LCLB  &BRLOC,&BANY                                    @D52VDVB 00274752
         LCLB  &BRET                                           @D61NDRP 00278861
.*************************************************************          00283052
.* IBM DISK OPERATING SYSTEM                                            00288552
* SUPERVISOR - PFIX  - 5686-066-06                             @D52VDVB 00294261
.************************************************************* @D31UDRP 00300000
.*                                                           *          00316152
.*       LICENSED MATERIALS - PROPERTY OF IBM                * @D31UDRP 00332252
.*       THIS MACRO IS "RESTRICTED MATERIALS OF IBM"         * @D31UDRP 00348352
.*       5686-066 (C) COPYRIGHT IBM CORP. 1977, 1995         * @D61NDRP 00364461
.*       SEE COPYRIGHT INSTRUCTIONS                          * @D31UDRP 00380552
.*                                                           *          00396652
.*************************************************************          00412752
         AIF   (N'&SYSLIST EQ 0 OR T'&SYSLIST(1) EQ 'O').ERR01 @D52VDVB 00428852
&AL2     SETA  N'&SYSLIST                                               00444952
&AL2     SETA  (&AL2/2)*2                                               00461052
&AL1     SETA  1                                                        00477152
         SPLEVEL TEST                                          @D52VDVB 00482452
&BRLOC   SETB  0                                               @D52VDVB 00493252
&BANY    SETB  0                                               @D52VDVB 00530752
&BRET    SETB  0                     INDICATE RETURN=NO        @D61NDRP 00543261
         AIF   ('&SYSSPLV' EQ '1').C020                        @D52VDVB 00555761
&CFCT    SETC  '1'                   FUNCTION CODE: PFIX   01  AD52VDVB 00568252
&CSVC    SETC  '121'                 SVC NUMBER  PGSER    121  @D52VDVB 00605952
.*    CHECK RETURN PARAMETER                                   @D61NDRP 00606561
         AIF   ('&RETURN' EQ '').C010                          @D61NDRP 00607161
         AIF   ('&SYSSPLV' GE '4').C001 VSE/ESA2.1.0 OR HIGHER @D61NDRP 00607761
         MNOTE 3,'RETURN PARAMETER IGNORED - SUPPORTED BY VSE/ESA 2.1  *00608361
               AND FOLLOW-ON'                                  @D61NDRP 00608961
         AGO   .C010                                           @D61NDRP 00609561
.C001    ANOP                                                  @D61NDRP 00610161
         AIF   ('&RETURN' EQ 'NO').C010                        @D61NDRP 00610761
         AIF   ('&RETURN' EQ 'YES').C005                       @D61NDRP 00611361
         MNOTE 3,'VALID RETURN VALUES ARE: NO AND YES - NO ASSUMED'    *00612461
                                                               @D61NDRP 00613761
         AGO   .C010                                           @D61NDRP 00615061
.C005    ANOP                                                  @D61NDRP 00616361
&BRET    SETB  1                  INDICATE RETURN=YES          @D61NDRP 00617661
.C010    ANOP                                                  @D61NDRP 00618961
.*    CHECK RLOC PARAMETER                                     @D61NDRP 00620261
         AIF   ('&RLOC' EQ '').C090                            @D52VDVB 00622052
         AIF   ('&RLOC' EQ 'BELOW').C090                       @D52VDVB 00638152
         AIF   ('&RLOC' EQ 'ANY').C011                         @D61NDRP 00643461
         MNOTE 3,'VALID RLOC VALUES ARE: BELOW OR ANY - BELOW ASSUMED' *00648761
                                                               @D52VDVB 00654061
         AGO   .C090                                           @D52VDVB 00659361
.C011    ANOP                                                  @D61NDRP 00664861
&BRLOC   SETB  1                                               @D52VDVB 00670352
&BANY    SETB  1                                               @D52VDVB 00690452
         AGO   .C090                                           @D61NDRP 00697161
.C020    ANOP                                                  @D52VDVB 00703852
&CSVC    SETC  '67'                  SVC NUMBER  PFIX      67  @D52VDVB 00710552
         AIF   ('&RETURN' EQ '').C080                          @D61NDRP 00711861
         MNOTE 3,'RETURN PARAMETER IGNORED - SUPPORTED BY VSE/ESA 2.1  *00713161
               AND FOLLOW-ON'                                  @D61NDRP 00714461
.C080    ANOP                                                  @D61NDRP 00715761
         AIF   ('&RLOC' EQ '').C090                            @D52VDVB 00717252
         MNOTE 3,'RLOC PARAMETER IGNORED - SUPPORTED BY VSE/ESA 1.3    *00723952
               AND FOLLOW-ON'                                  @D52VDVB 00730652
.C090    ANOP                                                  @D52VDVB 00783052
         AIF   (T'&NAME EQ '0').NONAME                         @D52VDVB 00800052
&NAME    DS    0H                                                       00900000
.NONAME  ANOP                                                  @D52VDVB 00916652
         AIF   (N'&SYSLIST EQ 1).LISTN                                  00933252
         CNOP  0,4                                                      00950000
         LA    1,*+8 .            LOAD ADDR OF LIST                     01000000
         B     *+4*(&AL2+1)+4                                  @D52VDVB 01050052
.NRANGE  ANOP                                                           01250000
         AIF   ('&SYSLIST(&AL1)'(1,1) NE '(').C1               @DM01262 01300000
         MNOTE 3,'REGISTER NOTATION FOR BEGIN OPERAND INVALID ---- END *01350052
               INDICATION GENERATED'                           @D52VDVB 01400052
         DC    X'80000000'                                     @D52VDVB 01450052
         AGO   .C2                                             @DM01262 01500000
.C1      ANOP                                                  @DM01262 01550000
         DC    A(&SYSLIST(&AL1))                                        01600000
.C2      AIF   ('&SYSLIST(&AL1+1)'(1,1) NE '(').C3             @DM01262 01650000
         MNOTE 3,'REGISTER NOTATION FOR END OPERAND INVALID ---- OPERAN*01700052
               D IGNORED'                                      @D52VDVB 01750052
         DC    A(0) .                                          @DM01262 01800000
         AGO   .C4                                             @DM01262 01850000
.C3      ANOP                                                  @DM01262 01900000
         DC    A((&SYSLIST(&AL1+1))-(&SYSLIST(&AL1)))          @DM03762 01950000
.C4      ANOP                                                  @DM01262 02000000
&AL1     SETA  &AL1+2                                                   02050000
         AIF   (N'&SYSLIST GT &AL1).NRANGE                              02100000
         AIF   (N'&SYSLIST LT &AL1).RLOCHCK                    @D52VDVB 02131252
         MNOTE 3,'ODD NUMBER OF BEGIN/END OPERAND(S) SPECIFIED ---- LAS*02162452
               T ONE IGNORED'                                  @D52VDVB 02193652
.RLOCHCK ANOP                                                  @D52VDVB 02224852
         DC    X'80000000'                                     @D52VDVB 02256052
         AGO   .CODGEN                                         @D52VDVB 02287252
.*                                                             @D52VDVB 02318452
.LISTN   AIF   ('&SYSLIST(1)'(1,1) EQ '(').R1                           02350000
         LA    1,&SYSLIST(1)                                   @D52VDVB 02450052
         AGO   .CODGEN                                         @D52VDVB 02500052
.*                                                             @D52VDVB 02550052
.R1      ANOP                                                           02650000
&AL3     SETA  K'&SYSLIST(1)                                   @D52VDVB 02666652
         AIF   ('&SYSLIST(1)'(&AL3,1) NE ')').ERR02            @D52VDVB 02683252
.*                                                             @D52VDVB 02699852
         AIF   ('&SYSLIST(1)'(2,1) EQ '1').CODGEN              @D52VDVB 02724952
         LR    1,&SYSLIST(1,1)                                          02750000
.CODGEN  ANOP                                                  @D52VDVB 02763052
         AIF   ('&SYSSPLV' EQ '1').SVCGEN                      @D52VDVB 02769552
.*                                                             @D52VDVB 02789052
         CNOP  0,4                                             @D52VDVB 02799852
         BAL   15,*+8                                          @D52VDVB 02810652
         DC    AL3(B'000000&BRET.0&BANY.000000&BRLOC.00000000')         02817861
         DC    AL1(&CFCT)                                      @D61NDRP 02825061
         L     15,0(,15)          FUNCTION AND OPTION CODE     @D52VDVB 02832252
.*                                                             @D52VDVB 02880052
.SVCGEN  ANOP                                                  @D52VDVB 02893052
         SVC   &CSVC              SVC PFIX                     @D52VDVB 02906052
         MEXIT                                                 @D52VDVB 02919052
.*                                                             @D52VDVB 02932052
.ERR01   ANOP                                                  @D52VDVB 02945052
         MNOTE 7,'BEGIN/END OPERAND(S) MISSING OR INVALID ---- GENERATI*02958052
               ON TERMINATED'                                  @D52VDVB 02971052
         MEXIT                                                 @D52VDVB 02984052
.*                                                             @D52VDVB 02997052
.ERR02   ANOP                                                  @D52VDVB 03010052
         MNOTE 7,'RIGHT PARANTHESES IN LIST OPERAND MISSING  ---- GENER*03023052
               ATION TERMINATED'                               @D52VDVB 03036052
         MEND                                                           03050000
