         MACRO                                                          00050000
&NAME    PFREE                                                          00100000
         GBLC  &SYSSPLV                                        @D52VDVB 00125052
         LCLA  &AL1,&AL2,&AL3                                           00150052
         LCLC  &CFCT                                           @D52VDVB 00158352
         LCLC  &CSVC                                           @D52VDVB 00179052
         LCLB  &BANY                                           @D52VDVB 00185252
.*************************************************************          00191552
.* IBM DISK OPERATING SYSTEM                                            00200000
* SUPERVISOR - PFREE - 5686-007-06                             @D52VDVB 00250052
.************************************************************* @D31UDRP 00300000
.*                                                           *          00323852
.*       LICENSED MATERIALS - PROPERTY OF IBM                * @D31UDRP 00347652
.*       THIS MACRO IS "RESTRICTED MATERIALS OF IBM"         * @D31UDRP 00371452
.*       5686-032 (C) COPYRIGHT IBM CORP. 1977, 1992         * @D52VDVB 00395252
.*       SEE COPYRIGHT INSTRUCTIONS                          * @D31UDRP 00419052
.*                                                           *          00442852
.*************************************************************          00466652
         AIF   (N'&SYSLIST EQ 0 OR T'&SYSLIST(1) EQ 'O').ERR01 @D52VDVB 00490452
&AL2     SETA  N'&SYSLIST                                               00514252
&AL2     SETA  (&AL2/2)*2                                               00538052
&AL1     SETA  1                                                        00561852
         SPLEVEL TEST                                          @D52VDVB 00570152
         AIF   ('&SYSSPLV' NE '1').ESAFRM                      @D52VDVB 00578452
&CSVC    SETC  '68'                  SVC NUMBER            68  @D52VDVB 00586752
         AGO   .NAME                                           @D52VDVB 00595052
.ESAFRM  ANOP                                                  @D52VDVB 00603352
&BANY    SETB  0                     OPTION : ABOVE 16MB   80  @D52VDVB 00611852
&CFCT    SETC  '2'                   FUNCTION CODE: PFREE  02  @D52VDVB 00661852
&CSVC    SETC  '121'                 SVC NUMBER           121  @D52VDVB 00776052
.NAME    ANOP                                                  @D52VDVB 00788052
         AIF   (T'&NAME EQ '0' ).NONAME                                 00800052
&NAME    DS    0H                                                       00900000
.NONAME  ANOP                                                  @D52VDVB 00916652
         AIF   (N'&SYSLIST EQ 1).LISTN                                  00933252
         CNOP  0,4                                                      00950000
         LA    1,*+8 .            LOAD ADDR OF LIST                     01000000
         B     *+4*(&AL2+1)+4                                  @D52VDVB 01050052
.NRANGE  ANOP                                                           01250000
         AIF   ('&SYSLIST(&AL1)'(1,1) NE '(').C1               @DM01262 01300000
         MNOTE 3,'REGISTER NOTATION FOR BEGIN OPERAND INVALID ---- END *01350052
               INDICATION GENERATED'                           @D52VDVB 01400052
         DC    X'80000000'                                     @D52VDVB 01450052
         AGO   .C2                                             @DM01262 01500000
.C1      ANOP                                                  @DM01262 01550000
         DC    A(&SYSLIST(&AL1))                                        01600000
.C2      AIF   ('&SYSLIST(&AL1+1)'(1,1) NE '(').C3             @DM01262 01650000
         MNOTE 3,'REGISTER NOTATION FOR END OPERAND INVALID ---- OPERAN*01700052
               D IGNORED'                                      @D52VDVB 01750052
         DC    A(0) .                                          @DM01262 01800000
         AGO   .C4                                             @DM01262 01850000
.C3      ANOP                                                  @DM01262 01900000
         DC    A((&SYSLIST(&AL1+1))-(&SYSLIST(&AL1)))          @DM03762 01950000
.C4      ANOP                                                  @DM01262 02000000
&AL1     SETA  &AL1+2                                                   02050000
         AIF   (N'&SYSLIST GT &AL1).NRANGE                              02100000
         AIF   (N'&SYSLIST LT &AL1).RLOCHCK                    @D52VDVB 02135752
         MNOTE 3,'ODD NUMBER OF BEGIN/END OPERAND(S) SPECIFIED ---- LAS*02171452
               T ONE IGNORED'                                  @D52VDVB 02207152
.RLOCHCK ANOP                                                  @D52VDVB 02242852
         DC    X'80000000'                                     @D52VDVB 02278552
         AGO   .CODGEN                                         @D52VDVB 02296352
.*                                                             @D52VDVB 02314252
.LISTN   AIF   ('&SYSLIST(1)'(1,1) EQ '(').R1                           02350000
         LA    1,&SYSLIST(1)                                   @D52VDVB 02450052
         AGO   .CODGEN                                         @D52VDVB 02500052
.*                                                             @D52VDVB 02550052
.R1      ANOP                                                           02650000
&AL3     SETA  K'&SYSLIST(1)                                   @D52VDVB 02666652
         AIF   ('&SYSLIST(1)'(&AL3,1) NE ')').ERR02            @D52VDVB 02683252
.*                                                             @D52VDVB 02699852
         AIF   ('&SYSLIST(1)'(2,1) EQ '1').CODGEN              @D52VDVB 02724952
         LR    1,&SYSLIST(1,1)                                          02750000
.*                                                             @D52VDVB 02785252
.CODGEN  ANOP                                                  @D52VDVB 02791452
         AIF   ('&SYSSPLV' EQ '1').SVCGEN                      @D52VDVB 02819352
         LA    15,&CFCT.(,0)      FUNCTION CODE                @D52VDVB 02847252
.*                                                             @D52VDVB 02853452
.SVCGEN  ANOP                                                  @D52VDVB 02859652
         SVC   &CSVC              SVC PFREE                    @D52VDVB 02865852
         MEXIT                                                 @D52VDVB 02873252
.*                                                             @D52VDVB 02890852
.ERR01   ANOP                                                  @D52VDVB 02908452
         MNOTE 7,'BEGIN/END OPERAND(S) MISSING OR INVALID ---- GENERATI*02926052
               ON TERMINATED'                                  @D52VDVB 02943652
         MEXIT                                                 @D52VDVB 02961252
.*                                                             @D52VDVB 02978852
.ERR02   ANOP                                                  @D52VDVB 02996452
         MNOTE 7,'RIGHT PARANTHESES IN LIST OPERAND MISSING  ---- GENER*03014052
               ATION TERMINATED'                               @D52VDVB 03031652
         MEND                                                           03050000
