*%GOTO PLSNDT;                                                          00001000
*/*                                                                     00002000
         MACRO                                                          00003000
&NAME    PNODE &NODE=,             NODE NAME                           *00004000
               &PWD=,              PASSWORD ASSIGNED TO NODE           *00005000
               &AUTH=,             AUTHORITY GIVEN TO NODE             *00006000
               &ROUTE1=,           PRIME ROUTE                         *00007000
               &ROUTE2=,           ALTERNATE ROUTE                     *00008000
               &APPLID=,           APPLICATION ID    (SNA ONLY)        *00009000
               &IPHOSTAD=,         DECIMAL DOTTED TCP/IP ADDR @D65CDAT *00010000
               &ISHOSTAD=,         DECIMAL DOT. TCP SSL ADDR. @D66CDAT *00011000
               &IPHOSTNM=,         TCP/IP ADDR. BY SYMB. NAME @D65CDAT *00012000
               &ISHOSTNM=,         TCP SSL ADDR. BY SYMB. NM. @D66CDAT *00013000
               &PORT=,             TCP/IP PORT NUMBER         @D65CDAT *00014000
               &SPORT=,            TCP/IP SSL PORT NUMBER     @D66CDAT *00015000
               &ENCRYPT=,          SSL ENCRYPTION LEVEL       @D66CDAT *00016000
               &SECTYPE=,          TYPE OF SECURITY PROTOCOL  @D66CDAT *00017000
               &KEYRING=,          SSL-KEY LIB.SUBLIB         @D66CDAT *00018000
               &DNAME=,            SSL-KEY MEMBER IN LIB.SUBL.@D66CDAT *00019000
               &IPEXTRAD=,         TCP/IP ADDR. FOR EXTERNAL  @DY46046 *00019500
               &LOCAL=,            SPECIFIES OWN NODE ENTRY            *00020000
               &BUFSIZE=,&MAXBUF=,                                     *00021000
               &DSECT=NO,          DSECT GENERATION REQUESTED (YES|NO) *00022000
               &DUMMY=DUMMY        END OF PROTOTYPE STMT                00023000
.*                                                                      00024000
.*             GLOBALS DEFINITIONS                                      00025000
.*                                                                      00026000
         GBLA  &CNT                NUMBER OF NODE ENTRIES GENERATED     00027000
.*                                                                      00028000
         GBLB  &ABORT              ABORT ANY MACRO CHECKING             00029000
         GBLB  &FIRST              FIRST TIME THROUGH SWITCH            00030000
         GBLB  &OWN                OWN NODE ENTRY SWITCH                00031000
.*                                                                      00032000
         GBLC  &PHASE              PHASE NAME                           00033000
         GBLC  &HDR                HEADER LABEL                         00034000
.*                                                                      00035000
.*             LOCAL DEFINITIONS                                        00036000
.*                                                                      00037000
         LCLA  &WL                 USED AS LOOP COUNT                   00038000
         LCLA  &I                  LOOP COUNT FOR CHECKING PARAMETER    00039000
         LCLA  &S                  LOOP POSITION PARAMETER    @D65CDAT  00040000
         LCLA  &AT                 AUTHORITY FLAGS                      00041000
         LCLA  &FLG                FLAG BYTE                            00042000
         LCLA  &FLG2               FLAG BYTE 2                @D66CDAT  00043000
         LCLA  &BSZ                NETWORK TP-BUFFER SIZE               00044000
         LCLA  &HOLN               LEN(DOTTED/SYMBOLIC ADDR)  @D65CDAT  00045000
         LCLA  &DGRP               IP/ADDR DOT GROUP          @D65CDAT  00046000
         LCLA  &HOPT               TCP/IP PORT NUMBER         @D65CDAT  00047000
         LCLA  &SOPT               TCP/IP SSL PORT NUMBER     @D66CDAT  00048000
         LCLA  &BF(4)              NO OF BUFFERS FOR XMITTERS           00049000
         LCLA  &MAX(2)             MAX NO OF BUFFERS                    00050000
         LCLA  &MIN(2)             MIN NO OF BUFFERS                    00051000
         LCLA  &IPA(4)             4 BYTES OF BINARY IP-ADDR  @D65CDAT  00052000
         LCLA  &EXA(4)             4 BYTES OF EXTERN IP ADDR  @DY46046  00052300
         LCLA  &EXLN               LEN(DOTTED/EXTERN IP ADDR) @DY46046  00052600
.*                                                                      00053000
         LCLB  &LOC                VALID LOCAL SPECIFICATION            00054000
.*                                                                      00055000
         LCLC  &DEST1              PRIMARY ROUTING                      00056000
         LCLC  &DEST2              ALTERNATE ROUTING                    00057000
         LCLC  &PW                 PASSWORD                             00058000
         LCLC  &APPL               APPLICATION ID                       00059000
         LCLC  &HONM               DOTTED OR SYMB. HOST NAME  @D65CDAT  00060000
         LCLC  &HOGP               DOTTED CHARACTER GROUP     @D65CDAT  00061000
         LCLC  &LKEYR              SSL KEY DATABASE           @D66CDAT  00062000
         LCLC  &LKEYM              SSL KEY MEMBER IN DATABASE @D66CDAT  00063000
         LCLC  &SSLTP              TYPE OF SECURITY PROTOCOL  @D66CDAT  00064000
         LCLC  &CHAR1              ALPHABETIC CHARACTER TABLE           00065000
         LCLC  &CHAR2              ALPHAMERIC CHARACTER TABLE           00066000
.*                                                                      00067000
.*                                                                      00068000
         AGO   .ZZZ                                                     00069000
*        LICENSED MATERIALS - PROPERTY OF IBM                           00070000
*        THIS MACRO IS "RESTRICTED MATERIALS OF IBM"                    00071000
*        5686-CF7 (C) COPYRIGHT IBM CORP. 1982, 2004                    00072000
*        SEE COPYRIGHT INSTRUCTIONS                                     00073000
.ZZZ     ANOP                                                           00074000
         AGO   .PBY                                                     00075000
.*                                                                      00076000
.*       IBM DISK OPERATING SYSTEM / VIRTUAL STORAGE EXTENDED (DOS/VSE) 00077000
.*       PNODE  -  5686-CF7-03                                          00078000
.*                                                                      00079000
.**** START OF SPECIFICATIONS ***************************************** 00080000
.*                                                                    * 00081000
.*    MODULE-NAME  =  PNODE                                           * 00082000
.*                                                                    * 00083000
.*    DESCRIPTIVE-NAME  =  VSE/POWER NETWORK DEFINTION MACRO          * 00084000
.*                                                                    * 00085000
.*    CHANGE ACTIVITY  =  AS FOLLOWS                                  * 00086000
.*                                                                    * 00087000
.* A000000-9999999                                            @D03PIPW* 00088000
.* EXTENDED BUFFER SIZE                                       @D22PIPW* 00089000
.* EXTEND PNET BSC/CTC BUFSIZE TO 4000 BYTES                  @D61FDAT* 00090000
.* NEW EQUATE FOR NDTF1 TO INVALIDATE DUPLICATE SNA APPLIDS   @DY44263* 00091000
.* RELEASE 6.3 UPGRADE, INCREASE DEFAULT BUFSIZE 400->1112    @D63PDAT* 00092000
.* PNET TCP SUPPORT, EXTENDED NDT ENTRY (VERSION 04.0)        @D65CDAT* 00093000
.* PNET TCP SUPPORT, EXTENDED NDT ENTRY (VERSION 05.0)        @D65CDAT* 00094000
.* PNET TCP SUPPORT, DEFINE TIME STAMP FOR MSG 1RC6I          @D65CDHS* 00095000
.* COLLECTED CHANGES FOR PNET TCP PTF                         @DY45514* 00096000
.* PNET SSL SUPPORT, EXTENDED NDT ENTRY (VERSION 06.0)        @D66CDAT* 00097000
.* PNET SSL SUPPORT, SET DEFAULT SPORT=375 (E.G.)             @D66CDAT* 00098000
.* PNET SSL SUPPORT, CHANGE 'TCS' NODE TO 'SSL'               @D66CDAT* 00099000
.* PNET SSL KEY=, LOCAL=YES VALUE TO BE DEFAULT FOR LOCAL=NO  @D66CDAT* 00100000
.* PNET SSL - SSLTYPE=SECTYPE, KEY=DNAME, LOW/HIGH=WEAK/STRONG@D66CDAT* 00101000
.* PNET SSL - DEFAULT SPORT 375 CHANGED TO 2252               @D66QDAT* 00102000
.* PNET SSL - SUPPORT ENCRYPT=NORMAL,SUPPRESS SECTYPE=TLS31   @DY45806* 00103000
.* PNET TCP - SUPPORT IPEXTRAD=LOCAL ADDR EXTERNALLY KNOWN    @DY46046* 00103500
.* PNET ALL - NEW DEFAULT (4,4) FOR MAXBUF                    @DY46287* 00103500
.*                                                                    * 00104000
.***  END OF SPECIFICATIONS   ***************************************** 00105000
.*                                                                      00106000
.*                                                                      00107000
.PBY     ANOP                                                           00108000
.*                                                                      00109000
.*                                                                      00110000
.* *******************************************************************  00111000
.*                                                                   *  00112000
.*       NOTE: TO MAKE PLS MACRO EXPANSION SUCCESSFUL FOLLOW THE     *  00113000
.*       =====  LISTED RULES IN THE ASSEMBLER PART OF THE MACRO:     *  00114000
.*             1- AVOID UNMATCHED APOSTROPHES!                       *  00115000
.*             2- AVOID UNMATCHED PLS COMMENT DELIMETERS!            *  00116000
.*             3- AVOID USE OF 'PERCENT SIGN' AND 'QUESTION MARK'!   *  00117000
.*                                                                   *  00118000
.* *******************************************************************  00119000
.*                                                                      00120000
.*                                                                      00121000
&CHAR1   SETC  'ABCDEFGHIJKLMNOPQRSTUVWXYZ@#$'   ALPHABETIC CHARACTERS  00122000
&CHAR2   SETC  'ABCDEFGHIJKLMNOPQRSTUVWXYZ@#$0123456789'  ALPHAMERIC    00123000
&NUM     SETC  '0123456789.'                     NUMERIC DIGITS         00124000
.*                                                                      00125000
.********************************************************************** 00126000
.*             CHECK FOR POSITIONAL OPERANDS                          * 00127000
.********************************************************************** 00128000
.GEN000  ANOP                                                           00129000
         AIF   (N'&SYSLIST EQ 0).GEN010                                 00130000
         SPACE 2                                                        00131000
         MNOTE 8,' POSITIONAL OPERANDS NOT ALLOWED - MACRO IGNORED.'    00132000
         SPACE 2                                                        00133000
         MEXIT                                                          00134000
.*                                                                      00135000
.********************************************************************** 00136000
.*             CHECK IF DSECT GENERATION REQUESTED (DSECT=YES)        * 00137000
.********************************************************************** 00138000
.GEN010  ANOP                                                           00139000
         AIF   (T'&DSECT EQ 'O' OR '&DSECT' EQ 'NO').GEN020             00140000
         AIF   ('&DSECT' EQ 'YES').GEN015  GENERATE DSECT               00141000
         SPACE 2                                                        00142000
         MNOTE 8,' INVALID DSECT SPECIFICATION, MACRO IGNORED'          00143000
         SPACE 2                                                        00144000
         MEXIT                                                          00145000
.*                                                                      00146000
.GEN015  ANOP                                                           00147000
         TITLE '&NAME      VSE/POWER (PNET)   NETWORK DEFINITION TABLE' 00148000
         SPACE 2                                                        00149000
*********************************************************************** 00150000
*                                                                     * 00151000
*              NETWORK DEFINITION TABLE HEADER                        * 00152000
*                                                                     * 00153000
*********************************************************************** 00154000
.*                                                                    * 00155000
.*             WHENEVER THIS DSECT IS CHANGED,                        * 00156000
.*             THE PLS-PART HAS TO BE UPDATED                         * 00157000
.*                                                                    * 00158000
         SPACE 1                                                        00159000
NTHDS    DSECT ,                   HEADER DEFINITION DSECT              00160000
NTHSD    DC    CL16' '             STORAGE DESCRIPTOR                   00161000
NTHFE    DC    A(0)                ADDRESS OF FIRST ENTRY IN TABLE      00162000
NTHNE    DC    H'0'                NUMBER OF ENTRIES IN TABLE           00163000
NTHMX    DC    H'160'              MAX. # TCP/IP SOCKET CALLS  @D66CDAT 00164000
NTHOE    DC    A(0)                ADDRESS OF OWN ENTRY IN TABLE        00165000
NTHVM    DC    CL4'06.0'           NETWORK DEF. TABLE VERS. ID @D66CDAT 00166000
*                                                                       00167000
         DC    XL2'00'             RESERVED FOR FUTURE USE     @D65CDAT 00168000
         DS    CL44                COPYRIGHT INFORMATION       @D65CDAT 00169000
         DC    XL50'00'            RESERVED FOR FUTURE USE     @D65CDAT 00170000
NTHLN    EQU   *-NTHDS             LENGTH OF HEADER                     00171000
         SPACE 2                                                        00172000
*********************************************************************** 00173000
*                                                                     * 00174000
*              VSE/POWER NETWORK DEFINITION TABLE                     * 00175000
*                                                                     * 00176000
*********************************************************************** 00177000
.*                                                                    * 00178000
.*             WHENEVER THIS DSECT IS CHANGED,                        * 00179000
.*             THE PLS-PART HAS TO BE UPDATED                         * 00180000
.*                                                                    * 00181000
         SPACE 1                                                        00182000
*        THE NETWORK DEFINITION TABLE, ASSEMBLED BY MACRO PNODE,        00183000
*        CONTAINS INFORMATION ABOUT EACH NODE IN THE NETWORK.           00184000
         SPACE 1                                                        00185000
NDTDS    DSECT ,                   NETWORK DEFINITION TABLE DSECT       00186000
NDTNM    DC    CL8' '              NODE NAME                            00187000
NDTPW    DC    CL8' '              PASSWORD                             00188000
NDTAF    DC    XL1'00'             AUTHORITY FLAGS                      00189000
NDTAS    EQU   X'F0'               .. NODE IS 'SYSTEM' AUTHORIZED       00190000
NDTAN    EQU   X'50'               .. NODE IS 'NETWORK' AUTHORIZED      00191000
NDTNU    EQU   X'20'               .. NOT USED                          00192000
NDTAJ    EQU   X'10'               .. NODE IS 'JOB' AUTHORIZED          00193000
NDTAE    EQU   X'00'               .. NODE IS NOT AUTHORIZED AT ALL     00194000
         DC    XL2'00'             RESERVED FOR FUTURE USE              00195000
NDTF1    DC    X'00'               FLAG BYTE 1                          00196000
NDTLI    EQU   X'80'               .. ADJACENT BSC/CTC NODE             00197000
NDTVA    EQU   X'40'               .. SNA TYPE NODE                     00198000
*                                     MAY BE SET FOR OWN NODE! @D65CDAT 00199000
NDTF1IA  EQU   X'20'               .. INVALID SNA APPLID       @DY44263 00200000
NDTPA    EQU   X'10'               .. TCP TYPE NODE            @D65CDAT 00201000
NDTF1IP  EQU   X'08'               .. INVALID TCP ADDRESS      @D65CDAT 00202000
NDTSA    EQU   X'04'               .. SSL TYPE NODE            @D66CDAT 00203000
NDTPR    DC    CL8' '              PRIME ROUTE FOR BSC/CTC, OR @D65CDAT 00204000
*                                  APPLICATION ID FOR SNA, OR  @D65CDAT 00205000
*                                  '*ATP    ', IF TCP IPHOSTAD @D65CDAT 00206000
*                                  '*ATP    ', IF SSL ISHOSTAD @D66CDAT 00207000
*                                  '*NTP    ', IF TCP IPHOSTNM @D65CDAT 00208000
*                                  '*NTP    ', IF SSL ISHOSTNM @D66CDAT 00209000
NDTSR    DC    CL8' '              ALTERNATE ROUTE                      00210000
NDTBS    DC    AL2(0)              PNET BUFFERSIZE                      00211000
NDTNI    DC    AL1(4)              MAX. NO OF INPUT BUFFERS    @DY46287 00212000
NDTNO    DC    AL1(4)              MAX. NO OUTPUT BUFFERS      @DY46287 00213000
NDTPT    DC    AL2(0)              TCP/IP PORT NUMBER FOR ...  @D65CDAT 00214000
*                                  'CONNECT', IF REMOTE NODE OR@D65CDAT 00215000
*                                  'LISTEN', IF OWN NODE       @D65CDAT 00216000
NDTSPT   DC    AL2(0)              TCP/IP SSL PORT NUMBER FOR..@D66CDAT 00217000
*                                  'CONNECT', IF REMOTE NODE OR@D66CDAT 00218000
*                                  'LISTEN', IF OWN NODE       @D66CDAT 00219000
NDTHML   DC    AL4(0)              TCP, LENGTH OF NDTHM VALUE  @D65CDAT 00220000
NDTIPAD  DC    0F'0'               BINARY IP ADDRESS           @D65CDAT 00221000
NDTIPA1  DC    AL1(0)              BINARY IPADDR BYTE 1| FOR...@D65CDAT 00222000
NDTIPA2  DC    AL1(0)              BINARY IPADDR BYTE 2| DOTTED@D65CDAT 00223000
NDTIPA3  DC    AL1(0)              BINARY IPADDR BYTE 3| DECIM.@D65CDAT 00224000
NDTIPA4  DC    AL1(0)              BINARY IPADDR BYTE 4| VALUE @D65CDAT 00225000
NDTHM    DC    CL255' '            TCP/IP HOST NAME ...        @D65CDAT 00226000
*                                  FOR OWN NODE 'UNUSED',      @D65CDAT 00227000
*                                  FOR REMOTE NODE ...         @D65CDAT 00228000
*                                   DOTTED DECIMAL (NDTPR=*ATP)@D65CDAT 00229000
*                                   SYMBOLIC NAME, (NDTPR=*NTP)@D65CDAT 00230000
NDTF2    DC    X'00'               FLAG BYTE 2                 @D66CDAT 00231000
NDT2CRL  EQU   X'80'               .. ENCRYPT = LOW = WEAK     @D66CDAT 00232000
NDT2CRH  EQU   X'40'               .. ENCRYPT = HIGH = STRONG  @D66CDAT 00233000
NDT2CRN  EQU   X'20'               .. ENCRYPT = NORMAL         @DY45806 00234000
NDTMSGTM DC    F'0'                TIME STAMP FOR MSG 1RC6     @D65CDHS 00235000
NDTMSGDI DC    F'0'                DOM-ID FOR A-TYPE MSG       @DPTMD01 00236000
NDTIPEX  DC    0F'0'               BINARY EXTERNAL IP ADDRESS  @DY46046 00237090
NDTIPE1  DC    AL1(0)              BINARY IPADDR BYTE 1| FOR...@DY46046 00237180
NDTIPE2  DC    AL1(0)              BINARY IPADDR BYTE 2| DOTTED@DY46046 00237270
NDTIPE3  DC    AL1(0)              BINARY IPADDR BYTE 3| DECIM.@DY46046 00237360
NDTIPE4  DC    AL1(0)              BINARY IPADDR BYTE 4| VALUE @DY46046 00237450
NDTSSLT  DC    CL8' '              SSL TYPE OF SECURITY PROTOC.@D66CDAT 00238000
NDTKEYR  DC    CL16' '             LIB.SUBLIB SSL KEY DATABASE @D66CDAT 00239000
NDTKEYM  DC    CL8' '              DNAME KEY-MEMBER IN DATABASE@D66CDAT 00240000
*                                  .. BLANK, IF DNAME OF LOCAL @D65CDAT 00241000
         DC    7F'0'               RESERVED FOR FUTURE USE     @D66CDAT 00242000
NDTLN    EQU   *-NDTDS             LENGTH OF ENTRY                      00243000
         SPACE 2                                                        00244000
         AGO   .DONE               EXIT MACRO                           00245000
.*                                                                      00246000
.GEN020  ANOP                                                           00247000
.*                                                                      00248000
.********************************************************************** 00249000
.*             CHECK NAME SPECIFICATION                               * 00250000
.********************************************************************** 00251000
.*                                                                      00252000
.*       THE NAME SPECIFICATION ON THE FIRST PNODE MACRO IS ALSO        00253000
.*       USED AS PHASE INFORMATION FOR THE LINKAGE EDITOR.              00254000
.*                                                                      00255000
.NAME00  ANOP                                                           00256000
         AIF   (&FIRST).NAME50     BRANCH IF NOT FIRST TIME THROUGH     00257000
         AIF   (T'&NAME EQ 'O').NAMER1   IF OMITTED, REPORT ERROR       00258000
         AIF   (K'&NAME GT 8).NAMER2     IF GREATER 8, REPORT ERROR     00259000
.*                                                                      00260000
&PHASE   SETC  '&NAME'             SET UP PHASE NAME                    00261000
&HDR     SETC  'HDR&SYSNDX'                                             00262000
.*                                                                      00263000
         TITLE '&NAME      VSE/POWER (PNET)   NETWORK DEFINITION TABLE' 00264000
*********************************************************************** 00265000
* * *                                                             * * * 00266000
* * *       V S E  /  P O W E R   NETWORK DEFINITION TABLE        * * * 00267000
* * *                                                             * * * 00268000
*********************************************************************WS 00269000
.* IBM DISK OPERATING SYSTEM / VIRTUAL STORAGE EXTENDED (DOS/VSE)       00270000
         SPACE 2                                                        00271000
* VSE/POWER - PNODE - 5686-CF7-03                                       00272000
         SPACE 1                                                        00273000
******************************************************                  00274000
*                                                    *                  00275000
*   LICENSED MATERIALS - PROPERTY OF IBM             *                  00276000
*   THIS MACRO IS "RESTRICTED MATERIALS OF IBM"      *                  00277000
*   5686-CF7 (C) COPYRIGHT IBM CORP. 1982, 2004      *                  00278000
*   SEE COPYRIGHT INSTRUCTIONS                       *                  00279000
*                                                    *                  00280000
******************************************************                  00281000
         SPACE 2                                                        00282000
*        THE FOLLOWING STATEMENT PROVIDES THE NECESSARY 'PHASE'         00283000
*        STATEMENT FOR THE LINKAGE EDITOR.                              00284000
         SPACE 1                                                        00285000
         PUNCH ' PHASE &NAME,S'                                         00286000
         SPACE 2                                                        00287000
&NAME    CSECT ,                   START OF NETWORK TABLE               00288000
         SPACE 2                                                        00289000
         DC    CL16'NETWORK DEF TBLE'  STORAGE DESCRIPTOR      @D04PIPW 00290000
&HDR     DS    0CL16               HEADER INFORMATION                   00291000
         DC    A(0)                ADDRESS OF FIRST ENTRY IN TABLE      00292000
         DC    H'0'                NUMBER OF ENTRIES IN TABLE           00293000
         DC    H'160'              MAX. # TCP/IP SOCKET CALLS  @D66CDAT 00294000
         DC    A(0)                ADDRESS OF OWN ENTRY IN TABLE        00295000
         DC    CL4'06.0'           DEFINITION TABLE VERSION ID @D66CDAT 00296000
         SPACE 2                                                        00297000
         DC    XL2'00'                                         @D65CDAT 00298000
         SPACE 1                                                        00299000
         IPW$CPY   YB=1982,YC=2001,BRANCH=NO COPYRIGHT CONST.  @D66CDAT 00300000
         SPACE 1                                                        00301000
         DC    XL50'00'                                        @D65CDAT 00302000
         SPACE 1                                                        00303000
         AGO   .NODE00             AND CONTINUE                         00304000
.*                                                                      00305000
.NAME50  ANOP                                                           00306000
         AIF   (T'&NAME EQ 'O').NODE00   IF OMITTED, BRANCH             00307000
         AIF   (K'&NAME LT 9).NODE00     IF LESS THAN 9, THAT IS OK     00308000
         SPACE 2                                                        00309000
         MNOTE 8,' INVALID NAME SPECIFICATION, NAME IGNORED'            00310000
         SPACE 1                                                        00311000
         AGO   .NODE00             AND CONTINUE                         00312000
.*                                                                      00313000
.NAMER1  ANOP                                                           00314000
&ABORT   SETB  1                   TURN ON SWITCH TO SKIP CHECKING      00315000
         SPACE 2                                                        00316000
         MNOTE 12,' NAME SPECIFICATION REQUIRED ON FIRST PNODE MACRO'   00317000
         SPACE 2                                                        00318000
         MEXIT                                                          00319000
.*                                                                      00320000
.NAMER2  ANOP                                                           00321000
&ABORT   SETB  1                   TURN ON SWITCH TO SKIP CHECKING      00322000
         SPACE 2                                                        00323000
         MNOTE 12,' INVALID NAME SPECIFICATION'                         00324000
         SPACE 2                                                        00325000
         MEXIT                                                          00326000
.*                                                                      00327000
.********************************************************************** 00328000
.*             CHECK NODE SPECIFICATION                               * 00329000
.********************************************************************** 00330000
.*                                                                      00331000
.*       THE NODE PARAMETER IS MANDATORY AND MUST BE ALPHAMERIC,        00332000
.*       FIRST CHARACTER ALPHABETIC. THE MAXIMUM LENGTH IS 8 BYTES.     00333000
.*                                                                      00334000
.NODE00  ANOP                                                           00335000
         AIF   (T'&NODE EQ 'O').NODERR1    IF OMITTED, ERROR            00336000
         AIF   (K'&NODE GT 8).NODERR2      IF GREATER 8, ERROR          00337000
&WL      SETA  1                   SET LOOP COUNT                       00338000
.NODE10  ANOP                                                           00339000
         AIF   ('&NODE'(1,1) EQ '&CHAR1'(&WL,1)).NODE20                 00340000
&WL      SETA  &WL+1               BUMP TO NEXT CHARACTER IN TABLE      00341000
         AIF   (&WL GT 29).NODERR2  IF NOT FOUND, ERROR                 00342000
         AGO   .NODE10             AND TRY THIS ONE                     00343000
.NODE20  ANOP                                                           00344000
&WL      SETA  1                   SET LOOP COUNT FOR OTHER TABLE       00345000
&I       SETA  2                   START CHECKING WITH 2ND CHARACTER    00346000
.NODE25  ANOP                                                           00347000
         AIF   (&I GT K'&NODE).NODE40  IT IS DONE, CHECK FOR 'SNA'      00348000
.NODE30  ANOP                                                           00349000
         AIF   ('&NODE'(&I,1) EQ '&CHAR2'(&WL,1)).NODE35                00350000
&WL      SETA  &WL+1               BUMP TO NEXT CHARACTER IN TABLE      00351000
         AIF   (&WL GT 39).NODERR2   NOT FOUND, ERROR                   00352000
         AGO   .NODE30             TRY THIS CHARACTER                   00353000
.NODE35  ANOP                                                           00354000
&WL      SETA  1                   SET LOOP COUNT AGAIN                 00355000
&I       SETA  &I+1                CHECK NEXT CHARACTER OF NODE NAME    00356000
         AGO   .NODE25             AND START CHECKING                   00357000
.NODE40  ANOP                                                           00358000
         AIF   ('&NODE' EQ 'SNA').NODERR2  NODE NAME IS SNA             00359000
         AGO   .LOC000             NODE IS ALRIGHT                      00360000
.*                                                                      00361000