         MACRO                                                          00050000
&NAME    POINTHCF &SAVE=,                                      @D52VDHH*00083352
               &MFG=                                           @D52VDHH 00116652
         LCLA  &AL1,&AL2,&AL3                                           00150000
         LCLC  &BADDR                    BAL ADDRESS           @D52VDHH 00166652
*                                                                       00200000
*        SUPERVISOR - POINTHCF - 5686-066-06                   @D61CDUG 00212561
         AGO   .NOCOPY                                         @D61CDUG 00225061
.*                                                                      00237561
*********************************************************************** 00250000
*                                                                       00300000
*        LICENSED MATERIALS - PROPERTY OF IBM                  @D61CDUG 00350061
*        "RESTRICTED MATERIALS OF IBM"                         @D61CDUG 00400061
*        5686-066 (C) COPYRIGHT IBM CORP. 1980, 1994           @D61CDUG 00450061
*                                                                       00900000
*********************************************************************** 00950000
.NOCOPY  ANOP                                                  @D61CDUG 00983361
.*                                                             @D61CDUG 01016661
.* /* START OF SPECIFICATIONS ***************************************** 01050000
.*                                                                      01100000
.*01* MODULE NAME = POINTHCF                                            01150000
.*                                                                      01200000
.*01* MODULE TYPE = HARD COPY FILE COMMUNICATION MACRO                  01250000
.*                                                                      01300000
.*01* DESCRIPTIVE NAME = OPEN FOR HARD COPY FILE                        01350000
.*                                                                      01400000
.*01* NOTES = NEW MODULE FOR DOS /VSE AF 1.3                            01450000
.*              HARD COPY FILE SUPPORT                                  01500000
.*                                                                      01550000
.*01* CHANGE ACTIVITIES = AS FOLLOWS                                    01600000
.*             BLOCKED HARD COPY FILE                          @D37ADRP 01650000
.*             NEW MFG PARAMETER FOR REENTRANCY                @D52VDHH 01675052
.*             LISTLOG OPERAND REMOVED                         @D61CDUG 01687561
.*A000000-999999                                               @D37ADRP 01700000
.*                                                                      01750000
.* /* END OF SPECIFICATION ******************************************** 01800000
.*                                                                      01850000
.*   R2=04 POINTHCF WRITE                                               01900000
.*        R0=00 CREATE                                                  01950000
.*        R0=04 CONTINUE                                                02000000
.*   R2=08 POINTHCF READ,PRINTLOG                                       02050000
.*        R0=00 ALL,NOSELECT                                            02100000
.*        R0=04 ALL,SELECT                                              02150000
.*        R0=08 NEW,NOSELECT                                            02200000
.*        R0=12 NEW,SELECT                                              02250000
.*   R2=12 POINTHCF READ,LISTLOG     - LISTLOG OPTION REMOVED  @D61CDUG 02300061
.*   R2=16 POINTHCF READ,REDISPL                                        02350000
.*                                                                      02400000
         AIF   (N'&SYSLIST EQ 0).ERR                                    02450000
&NAME    DS    0H                                                       02500000
         AIF   (T'&SAVE NE 'O').SAVE                                    02550000
         MNOTE 5,'NO SAVE OPERAND SPECIFIED IN POINTHCF MACRO INSTRUCTI*02600000
               ON, GENERATION TERMINATED'                               02650000
         MEXIT                                                          02700000
.SAVE    ANOP                                                           02750000
&AL1     SETA  0                                                        02800000
&AL3     SETA  0                                                        02850000
         AIF   ('&SAVE'(1,1) EQ '(').L1                                 02900000
         L     13,=A(&SAVE)        LOAD ADDR OF SAVE                    02950000
         AGO   .L2                                                      03000000
.L1      ANOP                                                           03050000
         AIF   ('&SAVE'(2,3) EQ '13)').L2                               03100000
         LR    13,&SAVE(1)         LOAD ADDR OF SAVE                    03150000
.L2      ANOP                                                           03200000
&AL2     SETA  N'&SYSLIST         GET NUMBER OF POSITIONAL PAR          03250000
         AIF   ('&SYSLIST(1)' NE 'WRITE').NOWRT                         03300000
&AL1     SETA  4                  INDICATE WRITE                        03350000
&AL3     SETA  4                  INDICATE CONTINUE (DEFAULT)           03400000
         AIF   (&AL2 EQ 1).GENBAL                                       03450000
         AIF   ('&SYSLIST(2)' NE 'CREATE').NOCREAT                      03500000
&AL3     SETA  0                  INDICATE CREATE                       03550000
         AIF   (&AL2 EQ 2).GENBAL                                       03600000
         AGO   .ERRPAR                                                  03650000
.NOCREAT ANOP                                                           03700000
         AIF   ('&SYSLIST(2)' NE 'CONTINUE').ERRPAR                     03750000
         AIF   (&AL2 EQ 2).GENBAL                                       03800000
         AGO   .ERRPAR                                                  03850000
.*   POINTHCF WRITE TEST FINISHED                                       03900000
.*                                                                      03950000
.NOWRT   ANOP                                                           04000000
         AIF   ('&SYSLIST(1)' NE 'READ').ERRPAR                         04050000
         AIF   (&AL2 EQ 1).ERRPAR                                       04100000
         AIF   (&AL2 GT 4).ERRPAR                                       04150000
         AIF   ('&SYSLIST(2)' NE 'PRINTLOG').NOPRINT                    04200000
.*     CHECK PARAMETER FOR READ,PRINTLOG                                04250000
&AL1     SETA  8                  INDICATE PRINTLOG                     04300000
&AL3     SETA  0                  INDICATE ALL,NOSELECT DEFAULT         04350000
         AIF   (&AL2 EQ 2).GENBAL                                       04400000
         AIF   ('&SYSLIST(3)' NE 'NEW').NONEW                           04450000
&AL3     SETA  &AL3+8             INDICATE NEW                          04500000
         AGO   .TESTP4                                                  04550000
.NONEW   ANOP                                                           04600000
         AIF   ('&SYSLIST(3)' NE 'ALL').ERRPAR                          04650000
.TESTP4  ANOP                                                           04700000
         AIF   (&AL2 EQ 3).GENBAL                                       04750000
         AIF   ('&SYSLIST(4)' NE 'SELECT').NOSELCT                      04800000
&AL3     SETA  &AL3+4             INDICATE SELECT                       04850000
         AGO   .GENBAL                                                  04900000
.NOSELCT ANOP                                                           04950000
         AIF   ('&SYSLIST(4)' NE 'NOSELECT').ERRPAR                     05000000
         AGO   .GENBAL                                                  05050000
.*   TEST FOR READ,PRINTLOG FINSHED                                     05100000
.*                                                                      05150000
.NOPRINT ANOP                                                           05200000
         AGO   .NOLIST               LISTLOG OPERAND REMOVED   @D61CDUG 05225061
         AIF   (&AL2 NE 2).ERRPAR                                       05250000
         AIF   ('&SYSLIST(2)' NE 'LISTLOG').NOLIST                      05300000
&AL1     SETA  12                 INDICATE READ,LISTLOG                 05350000
         AGO   .GENBAL                                                  05400000
.NOLIST  ANOP                                                           05450000
         AIF   ('&SYSLIST(2)' NE 'REDISPL').ERRPAR                      05500000
&AL1     SETA  16                 INDICATE READ,REDISPL                 05550000
.GENBAL  ANOP                                                           05600000
&BADDR   SETC  '$HCF'.'&SYSNDX'       SET LABEL FOR BAL INSTR. @D52VDHH 05616652
         ASYSCOM 2                                                      05650000
         ICM   2,7,X'35'(2)       GET 24 BIT ADDR OF CRTTAB    @D61CDUG 05700061
         L     15,X'24'(2)        GET MODULE ADDR                       05750000
         LTR   15,15              IS IO-MODULE PRESENT                  05800000
         BNZ   *+12               YES, BRANCH                           05850000
         LA    15,4               INDICATE INCONSISTENT STATE           05900000
         B     &BADDR.+4          DON'T INVOKE FUNCTION        @D52VDHH 05950061
         LA    2,&AL1             GET FUNCTION INDICATION               06000052
         LA    0,&AL3             GET SUBFUNCTION INDICATION            06050000
         AIF   (T'&MFG NE 'O').MFGP  MFG PARAMETER USED?       @D52VDHH 06083352
         BAL   1,&BADDR                                        @D52VDHH 06116652
         DC    XL6'0'                                                   06150000
         DC    X'FFFF'                                                  06200000
         DS    XL12                                                     06250000
         AGO   .BAL                                            @D52VDHH 06258352
.MFGP    AIF   ('&MFG'(1,1) EQ '(').MFGPR   REG USED?          @D52VDHH 06266652
         LA    1,&MFG             LOAD ADDRESS                 @D52VDHH 06274952
         AGO   .MFGINT                                         @D52VDHH 06283252
.MFGPR   AIF   ('&MFG' EQ '(1)').MFGINT     REG 1 USED ?       @D52VDHH 06291552
         LR    1,&MFG(1)          LOAD ADDRESS                 @D52VDHH 06299852
.MFGINT  XC    0(20,1),0(1)       CLEAR PARM LIST              @D52VDHH 06308152
         MVI   6(1),X'FF'                                      @D52VDHH 06316452
         MVI   7(1),X'FF'                                      @D52VDHH 06324752
.BAL     ANOP                                                  @D52VDHH 06333052
&BADDR   BAL   14,4(15)           INVOKE POINTHCF SERVICE      @D52VDHH 06341561
         MEXIT                                                          06350000
.ERR     MNOTE 5,'NO POS. OPERAND SPECIFIED IN POINTHCF MACRO INSTRUCTI*06400000
               ON, GENERATION TERMINATED'                               06450000
         MEXIT                                                          06500000
.ERRPAR  MNOTE 5,'INVALID POS. OPERAND SPECIFIED IN POINTHCF MACRO INST*06550000
               RUCTION, GENERATION TERMINATED'                          06600000
         MEND                                                           06650000
