         MACRO                                                          00010001
&NAME    POST  &ECB,&SAVE=                                              00011001
.*       IBM  DISK OPERATING SYSTEM                                     00030001
*        SUPERVISOR - POST - 5686-007-06 - C44                          00040002
         AGO   .ZZZ                                            @D31UDMZ 00041001
*        THIS MACRO IS "RESTRICTED MATERIALS OF IBM"           @D31UDMZ 00042001
*        5686-007 (C) COPYRIGHT IBM CORP. 1977,1989            @D31UDMZ 00043001
*        ALL RIGHTS RESERVED                                   @D31UDMZ 00044001
*        LICENSED MATERIALS-PROPERTY OF IBM                    @D31UDMZ 00045001
*        SEE COPYRIGHT INSTRUCTIONS, G120-2083                 @D31UDMZ 00046001
.ZZZ     ANOP                                                  @D31UDMZ 00047001
&NAME    IPOST &ECB,SAVE=&SAVE                                 @D64ADUL 00048001
         MEND                                                           00049001
