         MACRO                                                          00001009
&NAME    POWER &DBLK=,&LTAB=,&PRI=,&SUBLIB=,&STDLINE=,                 *00002009
               &STDCARD=,&JSEP=,&RBS=,&JLOG=,&PAUSE=,          @D52NDTR*00003009
               &RDREXIT=,&SNA=,&SPOOL=,                        @D34ZDQZ*00004009
               &FEED=,&MULT12=,                                @D34ZDQZ*00005009
               &CLRPRT=,&MRKFRM=,                              @D34YSWS*00006009
               &COPYSEP=,                                      @D34YSWS*00007009
               &TRACESZ=,                                      @D35BIML*00008009
               &SHARED=,&TIME=,&SYSID=,                        @D02PISS*00009009
               &NTFYMSG=,&PNET=,&RJEBSC=,                      @D03PIPW*00010009
               &MEMTYPE=,                                      @D03PILW*00011009
               &DBLKGP=,                                       @D23CDWS*00012009
               &SPLIM=,                                        @D23CDWS*00013009
               &OUTEXIT=,                                      @DC1EDIR*00014009
               &JOBEXIT=,                                      @DC1EDIR*00015009
               &NETEXIT=,                                      @DC1EDIR*00016009
               &XMTEXIT=,                                      @D51TDTR*00017009
               &MPWD=,                                         @D52KDIR*00018009
               &ACCOUNT=NO,                                    @D52NDTR*00019009
               &SECNODE=AAAA,                                  @D52HDSW*00020009
               &DUMMY=DUMMY          END OF PROTOTYPE STMT     @D34YSWS 00021009
.*                                                                      00022009
.********************************************************************** 00023009
.*                                                                    * 00024009
.* NOTE TO THE PROGRAMMER:                                            * 00025009
.*   1. IF A NEW OPERAND IS REQUIRED WHICH USES AN OLD(UNUSED) @D52HDSW 00026009
.*      FIELD OF THE GENERATION TABLE THEN SHE MUST CONSIDER   @D52HDSW 00027009
.*      WHAT EFFECT WILL OCCUR IF VSE/POWER IS STARTED USING   @D52HDSW 00028009
.*      AND OLD VSE/POWER GENERATION, E.G. IF THE FIELD        @D52HDSW 00029009
.*      REQUIRES A DEFAULT VALUE, SETTING THE DEFAULT IN THE   @D52HDSW 00030009
.*      NEW CODE WILL NOT SET THE DEFAULT VALUE IN AN OLD      @D52HDSW 00031009
.*      GENERATION, I.E. ONE MAY HAVE TO CHECK AT INITIAL-     @D52HDSW 00032009
.*      IZATION TIME IF THE DEFAULT VALUE IS REQUIRED AND IF   @D52HDSW 00033009
.*      SO, THEN SET THE DEFAULT VALUE THERE ALSO.             @D52HDSW 00034009
.*                                                                    * 00035009
.* CHANGE ACTIVITY - AS FOLLOWS                                       * 00036009
.*                                                                    * 00037009
.* USER SPECIFIED ACCOUNT RECORDS                             @D52NDTR* 00038009
.* MNOTE WHEN KEYWORD OPERAND RDREXIT=(,...)  SPECIFIED       @DA40934* 00039009
.* PWS ENHANCED SECURITY SUPPORT                              @D52HDSW* 00040009
.* ACCOUNTING IMPROVEMENT                            @D52NDTR @KX40749* 00041009
.* REMOVE RXSPOOL FOR ACCNT=YES                      @D52NDTR @KD40159* 00042009
.* MNOTE  FOR ACCOUNT=(,OPER1,OPER2,...,OPERN)       @D52NDTR @KD40373* 00043009
.* BUILD PTF2 PACKAGE: KD40373                                @DY42401* 00044009
.* EXTEND DBLK SIZE TO 64K-16                                 @D61FDAT* 00045009
.* EXPEDITED RESTART OF QUEUE ENTRIES                         @D61FDAT* 00046009
.* REDUCE DBLK FROM 65520 TO 65024, AVOID 65536 FOR FBA       @KXA0381* 00047009
.* SUPPORT FOR TURBO DISPATCHER, NP/PA EXIT WORK UNIT         @D61TDAT* 00048009
.* MSG1V02I VTAM OPEN FAILURE RTNCD=090 X'5A'                 @DA43889* 00049009
.* VSE/POWER 6.1.1 TURBO DISPATCHER SHIPMENT                  @DY44055* 00050009
.* RELEASE 6.3 UPGRADE                                        @D63PDAT* 00051009
.* ALLOW STDLINE/CARD=(N,0) FOR '1Q52I ONCE' (REMOVE DY43991) @DY44504* 00052009
.* EXTEND REAL STORAGE SUPPORT FROM 1024K TO 2048K            @D64VDAT* 00054009
.* ASSURE SLI SUPPORT IS ALWAYS ENABLED FOR FSU               @DY45161* 00054109
.* RELEASE 6.5 UPGRADE                                        @D65DDAT* 00054210
.* INCREASE DEFAULT TRACE-SIZE FROM 12K -> 24K                @D65CDAT* 00054312
.* ADJUST TRACE SIZE TO 8KB BOUNDARY, UP TO 248 K             @D65CDAT* 00054413
.* RELEASE 6.6 UPGRADE                                        @D66GDAT* 00054514
.* RELEASE 6.7 UPGRADE                                        @D67QDAT* 00054615
.* RELEASE 6.8 UPGRADE                                        @D68QDAT* 00054716
.* VERSION 7.1 UPGRADE                                        @D71QDAT* 00054817
.*                                                                    * 00054917
.********************************************************************** 00055017
.*                                                                      00055117
.* ARITHMETIC GLOBALS DEFINITION                                        00055217
         GBLA  &GBL1                   POWER + BSC TABLE LENGTH         00055317
         GBLA  &GBL2                   NUMBER OF BSC LINES              00055417
         GBLA  &GBL3                   NUMBER OF BSC REMOTES            00055517
         GBLA  &GBL4                   MACRO SEQUENCE CHECK             00055617
         GBLA  &GBL5                   POWER+BSC+SNA TBL LNGTH @D32DUSN 00055717
         GBLA  &GBL6                   NUMBER OF SNA REMOTES   @D32DUSN 00056009
         GBLA  &GBL7                   FOR REMOTE ID CHECKING  @D32DUSN 00057009
         GBLA  &GBL8                   FIRST SNA REMOTE ID     @D32DUSN 00058009
         GBLA  &NLUS                   NR OF SNA LOG UNITS     @D32DUSN 00059009
         GBLA  &LULOC                  LOCATION OF LU TABLE    @D34BDSN 00060009
.* CHARACTER GLOBALS DEFINITION                                         00061009
         GBLC  &NM                     NAME SPECIFICATION               00062009
.* ARITHMETIC LOCALS DEFINITION                                         00063009
         LCLA  &DB                     DBLK SPECIFICATION               00064009
         LCLA  &NTFY                   NTFYMSG SPECIFICATION   @D03PIPW 00065009
         LCLA  &BL                     DBLKGP SPECIFICATION    @D23CDWS 00066009
         LCLA  &SPL                    SPLIM  SPECIFICATION    @D23CDWS 00067009
         LCLA  &PY                     PRI SPECIFICATION                00068009
         LCLA  &WL                     WORK LOCAL                       00069009
         LCLA  &I                      USED AS LOOP COUNT      @D03PIPW 00070009
         LCLA  &LT(13)                 LTAB SPECIFICATION               00071009
         LCLA  &LP                     LENGTH VTAM ACB PASSWRD @D32DUSN 00072009
         LCLA  &OP                     OPTION BYTE             @D34ZDQZ 00073009
         LCLA  &TS                     BSC TRACE SIZE IN KB    @D35BIML 00074009
         LCLA  &SO                     SHARED SPOOLING OPTIONS @D02PISS 00075009
         LCLA  &TI(4)                  TIME INTERVALS          @D02PISS 00076009
         LCLA  &MXT(4)                 MAX TIME INTERVALS      @D02PISE 00077009
         LCLA  &LAPPLID                LENGTH APPLID           @D34BDSN 00078009
         LCLA  &OW                     OUTEXIT WORKAREA LENGTH @DC1EDIR 00079009
         LCLA  &RX                     JOB EXIT WORKAREA LENGTH@DC1EDIR 00080009
         LCLA  &PX                     PNET EXIT WORKAREA LNGTH@DC1EDIR 00081009
         LCLA  &TX                     XMTEXIT WORK AREA LENGTH@D51TDTR 00082009
         LCLA  &LISTP                  ACCNT KEYWORD LIST PTR  @D52NDTR 00083009
         LCLA  &KEYP                   ACCNT KEYWORD TABLE PTR @D52NDTR 00084009
         LCLA  &AKTVTAB(16)            ACCNT KEYWORD TABLE VAL @D52NDTR 00085009
         LCLA  &AKTOK(16)              ACCNT SIGNAL TABLE      @KX40749 00086009
         LCLA  &POWX                   ACCNT INFORMATION FIELD @D52NDTR 00087009
         LCLA  &NUMAKT                 NUMBER OF TABLE ENTRIES @D52NDTR 00088009
         LCLA  &NUMOP                  NUMBER OF ACCNT ENTRIES @D52NDTR 00089009
         LCLA  &AKTALL                 HIGHEST ACCOUNTING INFO @D52NDTR 00090009
.* CHARACTER LOCALS DEFINITION                                          00091009
         LCLC  &SID                    SYSTEM-ID               @D02PISS 00092009
         LCLC  &SL                     SUBLIB SPECIFICATION             00093009
         LCLC  &ST(2)                  STDLINE SPECIFICATION            00094009
         LCLC  &SD(2)                  STDCARD SPECIFICATION            00095009
         LCLC  &JB(2)                  JSEP SPECIFICATION               00096009
         LCLC  &NR(2)                  RBS SPECIFICATION                00097009
         LCLC  &RE                     JOBEXIT SPECIFICATION            00098009
         LCLC  &MTYP                   SL MEMBER TYPE          @D03PILW 00099009
         LCLC  &SECN                   SECURITY NODEID         @D52HDSW 00100009
         LCLC  &PRE                    PNET READER EXIT NAME   @D03PIPW 00101009
         LCLC  &NT                     NETWORK DEFINITION TBLE @D03PIPW 00102009
         LCLC  &AC                     ACCOUNT SPECIFICATION            00103009
         LCLC  &PP                     PAUSE PUNCH SPECIFICATION        00104009
         LCLC  &JL                     JLOG SPECIFICATION               00105009
         LCLC  &PW                     VTAM ACB PASSWORD       @D32DUSN 00106009
         LCLC  &SP                     SPOOL MGMT SPECIFICATION@D33PAJB 00107009
         LCLC  &APPLID                 VTAM APPLID             @D34BDSN 00108009
         LCLC  &CHAR1                  ALPHABETIC CHARACTER TBL@D03PIPW 00109009
         LCLC  &CHAR2                  ALPHAMERIC CHARACTER TBL@D03PIPW 00110009
         LCLC  &CHAR3                  ALPHAM-./  CHARACTER TBL@D52KDIR 00111009
         LCLC  &RJEB                   RJEBSC SPECIFICATION    @D03PIPE 00112009
         LCLC  &SH                     SHARED SPECIFICATION    @D03PIQE 00113009
         LCLC  &OE                     OUTPUT EXIT SPEC.       @DC1EDIR 00114009
         LCLC  &TRE                    XMTEXIT NAME            @D51TDTR 00115009
         LCLC  &MP(8)                  MASTER PASSWORD         @D52KDIR 00116009
         LCLC  &AKT(16)                ACCNT KEYWORD TABLE     @D52NDTR 00117009
         LCLC  &LENTRY                 LOCAL DUMMY FIELD       @D52NDTR 00118009
         LCLC  &TENTRY                 LOCAL DUMMY FIELD       @D52NDTR 00119009
         LCLC  &JXM                    JOBEXIT TD-MODE         @D61TDAT 00120009
         LCLC  &OXM                    OUTEXIT TD-MODE         @D61TDAT 00121009
         LCLC  &NXM                    NETEXIT TD-MODE         @D61TDAT 00122009
         LCLC  &XXM                    XMTEXIT TD-MODE         @D61TDAT 00123009
.* BINARY LOCALS DEFINITION                                             00124009
         LCLB  &SHR                    SHARED SPOOL            @D02PISS 00125009
         LCLB  &SSI                    SYS-ID                  @D02PISE 00126009
.*                                                                      00127009
&GBL1    SETA  280                 LENGTH OF GENERATION TABLE  @D03PIPW 00128009
&GBL5    SETA  &GBL1               SAVE LENGTH OF IT                    00129009
.*                                                                      00130009
&CHAR1   SETC  'ABCDEFGHIJKLMNOPQRSTUVWXYZ@#$'   ALPHABETIC CHARACTERS  00131009
&CHAR2   SETC  'ABCDEFGHIJKLMNOPQRSTUVWXYZ@#$0123456789'  ALPHAMERIC    00132009
&CHAR3   SETC  'ABCDEFGHIJKLMNOPQRSTUVWXYZ@#$-./0123456789' ALPHAM.-/   00133009
.*                                                             @D52KDIR 00134009
.*                                                                      00135009
         SPACE 2                                                        00136009
*********************************************************************** 00137009
*                                                                     * 00138009
*              V S E / P O W E R     L O A D E R                      * 00139009
*                                                                     * 00140009
*********************************************************************** 00141009
.*                                                                      00142009
.* IBM DISK OPERATING SYSTEM                                            00143009
         SPACE 2                                                        00144009
* VSE/POWER - POWER - 5686-CF7-03                                       00145017
         SPACE 1                                                        00146009
******************************************************                  00147009
*                                                    *                  00148009
*   LICENSED MATERIALS - PROPERTY OF IBM             *                  00149009
*   THIS MACRO IS "RESTRICTED MATERIALS OF IBM"      *                  00150009
*   5686-CF7 (C) COPYRIGHT IBM CORP. 1979, 2000      *                  00151017
*   SEE COPYRIGHT INSTRUCTIONS                       *                  00152009
*                                                    *                  00153009
******************************************************                  00154009
.*                                                                      00155009
.* MACRO SEQUENCE CHECKING **********                                   00156009
.*                                                                      00157009
         SPACE 1                                                        00158009
         AIF   (&GBL4 EQ 0).POW0      DOUBLE CHECK                      00159009
         MNOTE 5,'MACRO OUT OF SEQUENCE - MACRO IGNORED.'               00160009
         MEXIT                                                          00161009
.POW0    ANOP                                                           00162009
.*                                                                      00163009
.* CHECK FOR POSITIONAL OPERANDS                                        00164009
.*                                                                      00165009
         AIF   (N'&SYSLIST EQ 0).POW1                          @DA08671 00166009
         MNOTE 3,'POSITIONAL OPERANDS NOT ALLOWED - MACRO IGNORED.'     00167009
         MEXIT                                                 @DA08671 00168009
.POW1    ANOP                                                  @DA08671 00169009
&GBL4    SETA  1                       VALID POWER MACRO                00170009
.*                                                                      00171009
.* DBLK SPECIFICATION CHECKING **********                               00172009
.*                                                                      00173009
&DB      SETA  0                       INIT DBLK                        00174009
         AIF   (T'&DBLK EQ 'O').POW4   OMITTED                          00175009
         AIF   (T'&DBLK NE 'N').POW2   NUMERIC                          00176009
         AIF   (&DBLK EQ 0).POW4       OMITTED                          00177009
         AIF   (&DBLK LT 1000).POW2    MINIMUM                 @D23CDWS 00178009
         AIF   (&DBLK GT 65024).POW2   MAXIMUM DBLK            @KXA0381 00179009
&DB      SETA  &DBLK                   USER SPECIFIED DBLK              00180009
         AGO   .POW4                                                    00181009
.POW2    ANOP                                                           00182009
         MNOTE 3,' INVALID DBLK SPECIFICATION - DEFAULT ASSUMED'        00183009
         SPACE 1                                                        00184009
.POW4    ANOP                                                           00185009
.*                                                                      00186009
.* DBLKGP SPECIFICATION CHECKING **********                             00187009
.*                                                                      00188009
&BL      SETA  8                       SET DEFAULT DBLK GROUP  @D63PDAT 00189009
         AIF   (T'&DBLKGP EQ 'O').POW7   OMITTED               @D23CDWS 00190009
         AIF   (T'&DBLKGP NE 'N').POW6   NUMERIC               @D23CDWS 00191009
         AIF   (&DBLKGP EQ 0).POW6       IS USER ....          @D23CDWS 00192009
         AIF   (&DBLKGP EQ 1).POW6          SPECIFICATION IN   @D61FDAT 00193009
         AIF   (&DBLKGP GT 32767).POW6      VALID RANGE ?      @D23CDWS 00194009
&BL      SETA  &DBLKGP                 USER SPECIFIED VALUE    @D23CDWS 00195009
         AGO   .POW7                                           @D23CDWS 00196009
.POW6    ANOP                                                  @D23CDWS 00197009
         MNOTE 3,' INVALID DBLKGP SPECIFICATION - DEFAULT ASSUMED'      00198009
         SPACE 1                                                        00199009
.POW7    ANOP                                                  @D35DI01 00200009
.*                                                                      00201009
.* SPLIM SPECIFICATION CHECKING **********                              00202009
.*                                                                      00203009
&SPL     SETA  90                      SET DEFAULT SPLIM VALUE @D23CDWS 00204009
         AIF   (T'&SPLIM EQ 'O').POW9    BRANCH IF OMITTED     @D23CDWS 00205009
         AIF   (T'&SPLIM NE 'N').POW8    BRANCH IF NOT NUMERIC @D23CDWS 00206009
         AIF   (&SPLIM GT 100).POW8      VALID RANGE ?         @D23CDWS 00207009
&SPL     SETA  &SPLIM                  USER SPECIFIED VALUE    @D23CDWS 00208009
         AGO   .POW9                                           @D23CDWS 00209009
.POW8    ANOP                                                  @D23CDWS 00210009
         MNOTE 3,' INVALID SPLIM SPECIFICATION - DEFAULT ASSUMED'       00211009
         SPACE 1                                                        00212009
.POW9    ANOP                                                  @D23CDWS 00213009
.*                                                                      00214009
.* LTAB SPECIFICATION CHECKING **********                               00215009
.*                                                                      00216009
         AIF   (T'&LTAB EQ 'O').POW14  OMITTED                          00217009
         AIF   (N'&LTAB NE 13).POW12   13 ENTRIES                       00218009
&WL      SETA  1                       INIT LOOP COUNTER                00219009
.POW10   ANOP                                                           00220009
         AIF   (K'&LTAB(&WL) NE 2).POW12 2 DIGITS ENTRIES               00221009
         AIF   (T'&LTAB(&WL) NE 'N').POW12 SELFDEFINING TERM            00222009
&LT(&WL) SETA  &LTAB(&WL)              SET LT LOCAL                     00223009
&WL      SETA  &WL+1                   ADD TO LOOP COUNTER              00224009
         AIF   (&WL LE 13).POW10       LOOP TILL ALL CHECKED            00225009
         AGO   .POW16                                                   00226009
.POW12   ANOP                                                           00227009
         MNOTE 3,' INVALID LTAB, (10,00,05,10,15,20,25,30,35,40,45,50,5*00228009
               6) ASSUMED.'                                             00229009
         SPACE 1                                                        00230009
.POW14   ANOP                                                           00231009
&LT(1)   SETA  66                      DEFAULT                          00232009
&LT(2)   SETA  0                       .                                00233009
&LT(3)   SETA  5                       LTAB                             00234009
&LT(4)   SETA  10                      .                                00235009
&LT(5)   SETA  15                      SETTING                          00236009
&LT(6)   SETA  20                      .                                00237009
&LT(7)   SETA  25                      .                                00238009
&LT(8)   SETA  30                      .                                00239009
&LT(9)   SETA  35                      .                                00240009
&LT(10)  SETA  40                      .                                00241009
&LT(11)  SETA  45                      .                                00242009
&LT(12)  SETA  50                      .                                00243009
&LT(13)  SETA  56                      .                                00244009
         AGO   .POW24                                                   00245009
.POW16   ANOP                                                           00246009
&LT(1)   SETA  &LT(1)+&LT(13)                                           00247009
&WL      SETA  1                                                        00248009
.POW18   ANOP                                                           00249009
&WL      SETA  &WL+1                                                    00250009
         AIF   (&LT(&WL) EQ 0).POW20                                    00251009
&LT(&WL) SETA  &LT(&WL)-&LTAB(2)                                        00252009
         AIF   (&LT(&WL) GE 0).POW20                                    00253009
&LT(&WL) SETA  &LT(&WL)+&LT(1)                                          00254009
         AIF   (&LT(&WL) LT 0).POW12                                    00255009
.POW20   ANOP                                                           00256009
         AIF   (&LT(&WL) GT &LT(1)).POW12                               00257009
         AIF   (&WL LT 13).POW18                                        00258009
.POW24   ANOP                                                           00259009
.*                                                                      00260009
.* PRI SPECIFICATION CHECKING **********                                00261009
.*                                                                      00262009
&PY      SETA  3                       DEFAULT PRI                      00263009
         AIF   (T'&PRI EQ 'O').POW30   OMITTED                          00264009
         AIF   (T'&PRI NE 'N').POW28                                    00265009
         AIF   (&PRI LT 0 OR &PRI GE 10).POW28                          00266009
&PY      SETA  &PRI                    USER SPECIFIED PRI               00267009
         AGO   .POW30                                                   00268009
.POW28   ANOP                                                           00269009
         MNOTE 3,' INVALID PRI, 3 ASSUMED.'                             00270009
         SPACE 1                                                        00271009
.POW30   ANOP                                                           00272009
.*                                                                      00273009
.* NAME SPECIFICATION CHECKING **********                               00274009
.*                                                                      00275009
&NM      SETC  'POWER'                 DEFAULT NAME                     00276009
         AIF   (T'&NAME EQ 'O').POW34  OMITTED                          00277009
         AIF   (K'&NAME GT 8).POW32    MAX 7 CHARACTERS                 00278009
&NM      SETC  '&NAME'                 USER SPECIFIED NAME              00279009
         AGO   .POW34                                                   00280009
.POW32   ANOP                                                           00281009
         MNOTE 3,'INVALID NAME, DEFAULT ASSUMED.'                       00282009
.POW34   ANOP                                                           00283009
.*                                                                      00284009
.* SUBLIB SPECIFICATION CHECKING **********                             00285009
.*                                                                      00286009
&SL      SETC  'A'                     DEFAULT SUBLIB          @DY45161 00287009
&MTYP    SETC  'SOURCE  '              DEFAULT MEM TYPE        @DY45161 00288009
         AIF   (T'&SUBLIB EQ 'O').POW42  OMITTED                        00289009
         AIF   (K'&SUBLIB NE 1).POW38  ONE CHARACTER                    00290009
&WL      SETA  1                       SET LOOP COUNTER                 00291009
.POW36   ANOP                                                           00292009
         AIF   ('&SUBLIB' EQ   'ABCDFGHIJKLMNOPQRSTUVWXYZ0123456789$#@'*00293009
               (&WL,1)).POW40                                           00294009
&WL      SETA  &WL+1                   UPDATE LOOP COUNTER              00295009
         AIF   (&WL LE 38).POW36       LOOP UNTILL ALL CHECKED          00296009
.POW38   ANOP                                                           00297009
         AIF   ('&SUBLIB' NE 'NO').POW39                       @DY45161 00298009
         MNOTE 3,'SUBLIB=NO IGNORED, SLI SUPPORT GENERATED, SUBLIB=A.' *00299009
                                                               @DY45161 00300009
         AGO   .POW42                                          @DY45161 00301009
.POW39   ANOP                                                  @DY45161 00302009
         MNOTE 3,'INVALID SUBLIB, SLI SUPPORT GENERATED, SUBLIB=A.'    *00303009
                                                               @DY45161 00304009
         SPACE 1                                                        00305009
         AGO   .POW42                                                   00306009
.POW40   ANOP                                                           00307009
&SL      SETC  '&SUBLIB'               USER SPECIFIED SUBLIB            00308009
.POW42   ANOP                                                           00309009
.*                                                                      00310009
.* STDLINE SPECIFICATION CHECKING **********                            00311009
.*                                                                      00312009
         AIF   (N'&STDLINE EQ 0).POW50  OMITTED                         00313009
         AIF   (N'&STDLINE GE 3).POW48 MAX 2 ENTRIES                    00314009
&WL      SETA  2                       MAX NUMBER OF ENTRIES            00315009
.POW44   ANOP                                                           00316009
         AIF   (T'&STDLINE(&WL) EQ 'O').POW46  OMITTED                  00317009
         AIF   (T'&STDLINE(&WL) NE 'N' OR K'&STDLINE(&WL) GE 7 ).POW48  00318009
&ST(&WL) SETC  '&STDLINE(&WL)'         USER SPECIFIED STDLINE           00319009
.POW46   ANOP                                                           00320009
&WL      SETA  &WL-1                   NEXT ENTRY                       00321009
         AIF   (&WL NE 0).POW44        LOOP TILL ALL PROCESSED          00322009
         AIF   (T'&STDLINE(1) NE 'O' AND T'&STDLINE(2) NE 'O').POW52    00323009
         AIF   (T'&STDLINE(1) EQ 'O').POW47                             00324009
&ST(2)   SETC  '&ST(1)'                MAKE PARAMETERS EQUAL            00325009
         AGO   .POW52                                                   00326009
.POW47   ANOP                                                           00327009
&ST(1)   SETC  '&ST(2)'                MAKE PARAMETERS EQUAL            00328009
         AGO   .POW52                                                   00329009
.POW48   ANOP                                                           00330009
         MNOTE 3,' INVALID STDLINE, (0,0) ASSUMED.'                     00331009
         SPACE 1                                                        00332009
.POW50   ANOP                                                           00333009
&ST(1)   SETC  '0'                     DEFAULT STDLINE                  00334009
&ST(2)   SETC  '0'                     DEFAULT STDLINE                  00335009
.POW52   ANOP                                                           00336009
.*                                                                      00337009
.* STDCARD SPECIFICATION CHECKING **********                            00338009
.*                                                                      00339009
         AIF   (N'&STDCARD EQ 0).POW60 OMITTED                          00340009
         AIF   (N'&STDCARD GE 3).POW58 MAX 2 ENTRIES                    00341009
&WL      SETA  2                       MAX NUMBER OF ENTRIES            00342009
.POW54   ANOP                                                           00343009
         AIF   (T'&STDCARD(&WL) EQ 'O').POW56  OMITTED                  00344009
         AIF   (T'&STDCARD(&WL) NE 'N' OR K'&STDCARD(&WL) GE 7).POW58   00345009
&SD(&WL) SETC  '&STDCARD(&WL)'         USER SPECIFIED STDCARD           00346009
.POW56   ANOP                                                           00347009
&WL      SETA  &WL-1                   NEXT ENTRY                       00348009
         AIF   (&WL NE 0).POW54        LOOP TILL ALL PROCESSED          00349009
         AIF   (T'&STDCARD(1) NE 'O' AND T'&STDCARD(2) NE 'O').POW62    00350009
         AIF   (T'&STDCARD(1) EQ 'O').POW57                             00351009
&SD(2)   SETC  '&SD(1)'                MAKE PARAMETERS EQUAL            00352009
         AGO   .POW62                                                   00353009
.POW57   ANOP                                                           00354009
&SD(1)   SETC  '&SD(2)'                MAKE PARAMETERS EQUAL            00355009