         MACRO                                                          00050052
&NAME    PRODID &FUNC,                                                 *00100052
               &AREA=,                                                 *00150052
               &AUTH=,                                                 *00200052
               &RUN=,                                                  *00250052
               &TOKEN=                                                  00300052
         LCLC  &IJBN1,&IJBR1                                            00400052
.*                                                                      00450052
*        SUPERVISOR - PRODID - 5686-032-06                              00550052
         AGO   .NOCOPY                                                  00600052
*********************************************************************** 00650052
*                                                                     * 00700052
*        LICENSED MATERIALS - PROPERTY OF IBM                         * 00750052
*        THIS MACRO IS "RESTRICTED MATERIALS OF IBM"                  * 00800052
*        5686-032 (C) COPYRIGHT IBM CORP. 1993                        * 00850052
*        SEE COPYRIGHT INSTRUCTIONS                                   * 00900052
*                                                                     * 00950052
*********************************************************************** 01000052
.NOCOPY  ANOP                                                           01050052
.* /* START OF SPECIFICATIONS ***************************************** 01100052
.*                                                                    * 01150052
.* MODULE-TYPE = SUPERVISOR SVC INTERFACE MACRO                       * 01200052
.*                                                                    * 01250052
.* DESCRIPTIVE NAME = PRODUCT IDENTIFICATION FOR PRODUCTS             * 01275052
.*                                                                    * 01300052
.* STATUS = NEW IN VSE/AF 5.2.0, 5686-032-06-DB6                      * 01325052
.*                                                                    * 01350052
.* SYNTAX OF MACRO                                                    * 01375052
.* <NAME> PRODID AUTH=(YES|NO)|CHECK|DEFINE|DELETE|DSECT              * 01400052
.*               <,AREA= ((1)|NAME1)>                                 * 01425052
.*               <,RUN= (ONE|MULTIPLE)                                * 01450052
.*               <,TOKEN= ((1)|NAME2)>                                * 01475052
.*                                                                    * 01500052
.* SET OF FUNCTIONS:                                                  * 01550052
.*                                                                    * 01600052
.* PRODID AUTH=<YES|NO>                                               * 01616652
.*       FUNCTION: GRANTS (AUTH=YES) OR REVOKES (AUTH=NO)             * 01633252
.*                 AUTHORITY TO USE CERTAIN SYSTEM SERVICES           * 01649852
.*       INPUT : TOKEN IN REGISTER 1 AND 2                            * 01666452
.*       OUTPUT: NONE                                                 * 01683052
.*                                                                    * 01700052
.*       RETURN CODE IN REGISTER 15:                                  * 01716652
.*        0  AUTHORITY GRANTED/REVOKED                                * 01733252
.*        4  AUTHORITY GRANTED/REVOKED, WAS ALREADY GRANTED/REVOKED   * 01749852
.*        8  AUTHORITY NOT GRANTED, MORE THAN 255 CONSECUTIVE         * 01766552
.*           AUTH=YES REQUESTS FOR THIS PRODUCT IN SAME TASK          * 01783252
.*       16  IJBVEND NOT LOADED                                       * 01791652
.*                                                                    * 01800052
.* PRODID CHECK,AREA=<(1)| NAME1>                                     * 01800852
.*       FUNCTION: SEARCHES FOR SPECIFIED STRING, RETURNS             * 01801452
.*                 MATCHING PRODUCT ENTRY/IES, OR ALL PRODUCT ENTRIES * 01802052
.*                 IF 'ALL ENTRIES ' SPECIFIED IN IJBCOMPN            * 01802652
.*       INPUT : AREA DESCRIBED BY PRODID DSECT, I.E.                 * 01803252
.*               SEARCH ARGUMENT FROM IBJCOMP TO IJBVRM               * 01804052
.*               LENGTH OF OUTPUT AREA IN IJBCKLEN,                   * 01805652
.*               START OF OUTPUT AREA AT IJBCKARE                     * 01806452
.*       OUTPUT: PRODUCT ENTRIES MATCHING SEARCH CRITERIA MOVED       * 01807252
.*               TO IJBCKARE                                          * 01808052
.*       RETURN CODE IN REGISTER 15:                                  * 01808852
.*        0  ENTRY/IES MATCHING SEARCH ARGUMENT MOVED                 * 01809652
.*        4  ENTRY/IES MATCHING SEARCH ARGUMENT MOVED, MORE AVAIL.    * 01810452
.*        8  NO MATCH FOUND                                           * 01810952
.*       12  CONTROL BLOCK FORMAT ERROR                               * 01811452
.*       16  IJBVEND NOT LOADED                                       * 01812052
.*                                                                    * 01812852
.* PRODID DEFINE,AREA=<(1)| NAME1><,RUN=ONE>                          * 01813652
.*       FUNCTION: DEFINES A PROGRAM TO THE SYSTEM AND ASSIGNS        * 01814452
.*                 TOKEN AS PASSPORT TO SERVICES                      * 01815252
.*       INPUT : AREA DESCRIBED BY PRODID DSECT                       * 01816052
.*       OUTPUT: TOKEN IN IJBTOKEN                                    * 01816852
.*       RETURN CODE IN REGISTER 15:                                  * 01817652
.*        0  TOKEN RETURNED                                           * 01818452
.*        4  SAME STRING ALREADY DEFINED, SAME TOKEN RETURNED         * 01819252
.*        8  MAXIMUM OF 256 PRODUCTS DEFINED                          * 01819752
.*       12  CONTROL BLOCK FORMAT ERROR                               * 01820252
.*       16  IJBVEND NOT LOADED                                       * 01820852
.*       20  GETVIS ERROR, GETVIS RETURN CODE IN REGISTER 0           * 01821652
.*                                                                    * 01822452
.*                                                                    * 01823252
.* PRODID DELETE                                                      * 01824052
.*       FUNCTION: DELETES THE PROGRAM ENTRY FROM SYSTEM,             * 01824852
.*                 AND INVALIDATES ITS TOKEN                          * 01825652
.*       INPUT : TOKEN                                                * 01826452
.*       OUTPUT: NONE                                                 * 01827252
.*       RETURN CODE IN REGISTER 15:                                  * 01828052
.*        0  TOKEN INVALIDATED, ENTRY REMOVED                         * 01828852
.*        4  TOKEN AND ENTRY WERE ALREADY REMOVED                     * 01829652
.*       16  IJBVEND NOT LOADED                                       * 01831252
.*                                                                    * 01832852
.*                                                                    * 01833652
.* PRODID DSECT                                                       * 01834452
.*       INPUT : NONE                                                 * 01835252
.*       OUTPUT: DSECT FOR INPUT/OUTPUT AREA FOR DEFINE AND CHECK     * 01836052
.*               GENERATED                                            * 01836852
.*       RETURN CODE IN REGISTER 15:  NONE                            * 01837652
.*                                                                    * 01838452
.* REGISTER USAGE (EXCEPT FOR PRODID DSECT):                          * 01839252
.*       REGISTER 15  FUNCTION CODE, RETURN CODE                      * 01839852
.*       REGISTER 0   ADD. FUNCTION CODE, ADD. RETURN CODE            * 01840452
.*       REGISTER 1   POINTER TO INPUT AREA, OR 1ST HALF OF TOKEN     * 01841052
.*       REGISTER 2   2ND HALF OF TOKEN ON AUTH=                      * 01841652
.*                                                                    * 01842452
.* CHANGE ACTIVITIES:                                                 * 01853252
.* A000000-999999                                              @D52YDEM 01864152
.*                                                                    * 01875052
.**** END OF SPECIFICATIONS ******************************************* 01900052
         AIF   (T'&FUNC NE 'O' OR T'&AUTH NE 'O').FUN10                 01950052
         MNOTE 8,' MACRO FUNCTION OMITTED, GENERATION SUPPRESSED'       02000052
         SPACE 3                                                        02050052
         MEXIT                                                          02100052
.FUN10   AIF   (T'&FUNC NE 'O' AND N'&SYSLIST EQ 1).FUN20               02116652
         AIF   (T'&AUTH NE 'O' AND N'&SYSLIST EQ 0).FUN20               02133252
         MNOTE 8,'MORE THAN ONE POSITIONAL OPERAND, OR ''AUTH='' WITH P*02149852
               OSITIONAL OPERAND. GENERATION SUPPRESSED.'               02166452
         SPACE 3                                                        02183052
         MEXIT                                                          02199652
.FUN20   AIF   ('&FUNC' EQ 'DSECT').DS10                                02216252
         AIF   ('&NAME' EQ '').FUN30                                    02232852
&NAME    DC    0H'0'                                                    02250052
.FUN30   ANOP                                                           02300052
         AIF   ('&FUNC' EQ 'DEFINE').DEF10                              02350052
         AIF   ('&FUNC' EQ 'DELETE').DEL10                              02400052
         AIF   ('&FUNC' EQ 'CHECK').CHEK10                              02450052
         AIF   (T'&FUNC EQ 'O' AND T'&AUTH NE 'O').AUTH10               02500052
         MNOTE 8,' &FUNC IS NO VALID FUNCTION, GENERATION SUPPRESSED'   02550052
         SPACE 3                                                        02600052
         MEXIT                                                          02650052
.*  * * * * * * * * * * *  FUNC=DSECT  * * * * * * * * * * * * * * *    02700052
.DS10    ANOP                                                           02750052
         AIF   ('&AREA' NE '' OR '&AUTH' NE '').DS20                    02800052
         AIF   ('&RUN' EQ '' AND '&TOKEN' EQ '').DS30                   02850052
.DS20    MNOTE 4,' ANY OPERAND WITH DSECT IGNORED'                      02900052
.DS30    AIF   ('&NAME' EQ '').DS40                                     02950052
&NAME    DSECT               INPUT/OUTPUT AREA FOR PRODID DEFINE/CHECK  03000052
         AGO   .DS50                                                    03050052
.DS40    ANOP                                                           03100052
         DSECT               INPUT/OUTPUT AREA FOR PRODID DEFINE/CHECK  03150052
.DS50    ANOP                                                           03200052
IJBVIDL  DS    AL2(IJBFINST) LENGTH OF INPUT AREA                       03250052
IJBVIFL1 DS    CL1           FLAGBYTE, RESERVED                         03300052
IJBVIFL2 DS    CL1           FLAGBYTE, RESERVED                         03350052
IJBCOMPN DS    CL14          NAME OF COMPANY, PROGRAM OWNER             03400052
IJBPRODN DS    CL16          NAME OF PROGRAM                            03450052
IJBVRM   DS    CL6           VERSION AND RELEASE OF PROGRAM             03500052
IJBTOKEN DS    CL8           TOKEN RETURNED BY DEFINE                   03550052
IJBCKLEN DS    CL2           LENGTH OF OUTPUT AREA FOR CHECK            03600052
IJBFINST EQU   *-IJBVIDL                                                03700052
IJBCKARE EQU   *             BEGIN OF OUTPUT AREA FOR CHECK             03707152
IJBCOMPO DS    CL14          NAME OF COMPANY, PROGRAM OWNER             03714252
IJBPRODO DS    CL16          NAME OF PROGRAM                            03721352
IJBVRMO  DS    CL6           VERSION AND RELEASE OF PROGRAM             03728452
IJBTIDO  DS    CL2           TASK ID RETURNED BY CHECK                  03735552
IJBPIKO  DS    CL2           PARTITION ID RETURNED BY CHECK             03742652
         SPACE 3                                                        03750052
         MEXIT                                                          03800052
.*  * * * * * * * * * * *  FUNC=DEFINE  * * * * * * * * * * * * * *     03850052
.DEF10   ANOP                                                           03900052
         AIF   (T'&AREA NE 'O').DEF20                                   03950052
         MNOTE 8,' AREA OPERAND MISSING, GENERATION SUPPRESSED'         04000052
         SPACE 3                                                        04050052
         MEXIT                                                          04100052
.DEF20   AIF   (T'&TOKEN EQ 'O'AND T'&AUTH EQ 'O').DEF30                04150052
         MNOTE 8,'INVALID OPERAND,VALID ARE ONLY ''AREA='' AND ''RUN=''*04183352
               . GENERATION SUPPRESSED'                                 04216652
         SPACE 3                                                        04250052
         MEXIT                                                          04300052
.DEF30   AIF   ('&AREA' EQ '(1)').DEF50                                 04350052
         AIF   ('&AREA'(1,1) EQ '(').DEF40                              04400052
&IJBN1   SETC  '&AREA'                                                  04450052
         LA    1,&IJBN1                                                 04500052
         AGO   .DEF50                                                   04550052
.DEF40   ANOP                                                           04600052
&IJBR1   SETC  '&AREA'(2,K'&AREA-2)                                     04650052
         LR    1,&IJBR1                                                 04700052
.DEF50   ANOP                                                           04750052
         AIF   ('&RUN' EQ 'MULTIPLE').DEF60                             04800052
         SR    0,0                DEFINE ONE PROGRAM PER SYSTEM         04850052
         AIF   (T'&RUN EQ 'O' OR '&RUN' EQ 'ONE').DEF70                 04900052
         MNOTE 4,' RUN=&RUN NOT VALID, RUN=ONE ASSUMED'                 04950052
         AGO   .DEF70                                                   05000052
.DEF60   LA    0,1                                                      05037552
.DEF70   LA    15,1                                                     05075052
         SVC   124                                                      05112552
         SPACE 3                                                        05150052
         MEXIT                                                          05200052
.*  * * * * * * * * * * *  FUNC=DELETE  * * * * * * * * * * * * * *     05250052
.DEL10   ANOP                                                           05300052
         AIF   (T'&TOKEN NE 'O').DEL20                                  05350052
         MNOTE 8,' TOKEN OPERAND MISSING, GENERATION SUPPRESSED'        05400052
         SPACE 3                                                        05450052
         MEXIT                                                          05500052
.DEL20   AIF   (T'&AREA NE 'O' OR T'&AUTH NE 'O').DEL30                 05550052
         AIF   (T'&RUN EQ 'O').DEL40                                    05591652
.DEL30   MNOTE 8,'INVALID OPERAND, VALID IS ONLY ''TOKEN=''. GENERATION*05633352
                SUPPRESSED'                                             05666652
         SPACE 3                                                        05700052
         MEXIT                                                          05750052
.DEL40   AIF   ('&TOKEN' EQ '(1)').DEL60                                05800052
         AIF   ('&TOKEN'(1,1) EQ '(').DEL50                             05850052
&IJBN1   SETC  '&TOKEN'                                                 05900052
         LA    1,&IJBN1                                                 05950052
         AGO   .DEL60                                                   06000052
.DEL50   ANOP                                                           06050052
&IJBR1   SETC  '&TOKEN'(2,K'&TOKEN-2)                                   06100052
         LR    1,&IJBR1                                                 06150052
.DEL60   ANOP                                                           06200052
         LA    15,2                DELETE ENTRY                         06250052
         SVC   124                                                      06300052
         SPACE 3                                                        06350052
         MEXIT                                                          06400052
.*  * * * * * * * * * * *  FUNC=CHECK  * * * * * * * * * * * * * *      06450052
.CHEK10  ANOP                                                           06500052
         AIF   (T'&AREA NE 'O').CHEK20                                  06550052
         MNOTE 8,' AREA OPERAND MISSING, GENERATION SUPPRESSED'         06600052
         SPACE 3                                                        06650052
         MEXIT                                                          06700052
.CHEK20  AIF   (T'&TOKEN NE 'O' OR T'&AUTH NE 'O').CHEK30               06750052
         AIF   (T'&RUN EQ 'O').CHEK40                                   06791652
.CHEK30  MNOTE 8,'INVALID OPERAND, VALID IS ONLY ''AREA=''. GENERATION *06833352
               SUPPRESSED'                                              06866652
         SPACE 3                                                        06900052
         MEXIT                                                          06950052
.CHEK40  ANOP                                                           07000052
         AIF   ('&AREA' EQ '(1)').CHEK60                                07050052
         AIF   ('&AREA'(1,1) EQ '(').CHEK50                             07100052
&IJBN1   SETC  '&AREA'                                                  07150052
         LA    1,&IJBN1                                                 07200052
         AGO   .CHEK60                                                  07250052
.CHEK50  ANOP                                                           07300052
&IJBR1   SETC  '&AREA'(2,K'&AREA-2)                                     07350052
         LR    1,&IJBR1                                                 07400052
.CHEK60  ANOP                                                           07450052
         LA    15,3                CHECK FOR ENTRY                      07500052
         SVC   124                                                      07550052
         SPACE 3                                                        07600052
         MEXIT                                                          07650052
.*  * * * * * * * * * * * FUNCTION=AUTH  * * * * * * * * * * * * *      07700052
.AUTH10  ANOP                                                           07750052
         AIF   (T'&AREA NE 'O' OR T'&TOKEN NE 'O').AUTH20               07800052
         AIF   (T'&RUN EQ'O').AUTH30                                    07841652
.AUTH20  MNOTE 8,'INVALID OPERAND, VALID IS ONLY ''AUTH=''. GENERATION *07883352
               SUPPRESSED'                                              07916652
         SPACE 3                                                        07950052
         MEXIT                                                          08000052
.AUTH30  AIF   ('&AUTH' EQ 'YES' OR '&AUTH' EQ 'NO').AUTH40             08050052
         MNOTE 8,'AUTH=&AUTH NOT VALID, VALID ARE YES OR NO. GENERATION*08083352
                SUPPRESSED'                                             08116652
         SPACE 3                                                        08150052
         MEXIT                                                          08200052
.AUTH40  ANOP                                                           08250052
         AIF   ('&AUTH' EQ 'YES').AUTH50                                08285752
         SR    0,0                AUTH=NO                               08321452
         AGO   .AUTH60                                                  08357152
.AUTH50  LA    0,1                AUTH=YES                              08392852
.AUTH60  SR    15,15                                                    08428552
         SVC   124                                                      08464252
         SPACE 3                                                        08500052
         MEND                                                           08550052
