*%GOTO   PRODEXIT1; /* PLX COMMENT TO AVOID UNMATCHED QUOTE PROBLEMS    00050061
         MACRO                                                          00100061
&NAME    PRODEXIT &FUNC,                                               *00150061
               &AREA=,                                                 *00200061
               &CLASS=,                                                *00250061
               &DYN=,                                          @D61YDHK*00270061
               &ID=,                                                   *00300061
               &RC=                                                     00350061
         GBLB  &IJBSGEN                                                 00400061
         LCLA  &IJBRID                                                  00412561
         LCLB  &IJBB1                                                   00425061
         LCLB  &IJBRC,&IJBAR,&IJBSRC,&IJBVTMP                  @D61YDHK 00465041
         LCLB  &IJBDYN                                         @D61YDFG 00470031
         LCLC  &IJBR1                                                   00475061
.*                                                                      00500061
*        SUPERVISOR - PRODEXIT - 5686-CF7-06                            00550061
         AGO   .NOCOPY                                                  00600061
*********************************************************************** 00650061
*                                                                     * 00700061
*        LICENSED MATERIALS - PROPERTY OF IBM                         * 00750061
*        "RESTRICTED MATERIALS OF IBM"                                * 00800061
*        5686-CF7 (C) COPYRIGHT IBM CORP. 1994, 2003           @D61YDHK 00900051
*                                                                     * 00950061
*********************************************************************** 01000061
.NOCOPY  ANOP                                                           01050061
.* /* START OF SPECIFICATIONS ***************************************** 01100061
.*                                                                    * 01150061
.* MODULE-TYPE = SUPERVISOR SVC/BASSM INTERFACE MACRO          @D61YDHK 01220051
.*                                                                    * 01250061
.* DESCRIPTIVE NAME = EXIT PROCESSING FOR VENDOR PRODUCTS             * 01300061
.*                                                                    * 01350061
.* STATUS = NEW IN VSE/AF 6.1.0, 5686-CF7-06                          * 01400061
.*                                                                    * 01450061
.* SYNTAX OF MACRO                                                    * 01500061
.* <NAME> PRODEXIT (ACTIVATE|CHECK|DEFINE),AREA= ((1)|NAME1)          * 01550061
.*  IN SSTATE:      ACTIVATE,ID=SCLFCT<,AREA=((1)|NAME1)>      @D61YDHK 01574651
.*                                         <,RC=(YES|NO)>             * 01583261
.*                  R13 MUST POINT TO PROGRAM SAVE AREA FOR           * 01600061
.*                                             NON-SUPERVISOR         * 01625061
.* <NAME> PRODEXIT (DELETE|DISABLE)                            @D61YDHK 01672551
.*                  INPUT: PRODEXIT TOKEN IN R1 AND R2                * 01700061
.* <NAME> PRODEXIT (ENABLE|DISABLE)<,DYN=YES,ID=SCLFCT>        @D61YDHK 01703061
.*                  INPUT: PRODEXIT TOKEN IN R1 AND R2         @D61YDHK 01706061
.* <NAME> PRODEXIT (ENABLE)                                    @D61YDHK 01709061
.*                  INPUT: PRODEXIT TOKEN IN R1 AND R2         @D61YDHK 01712061
.* <NAME> PRODEXIT (RETURN)                                           * 01716661
.*                  INPUT: REGISTER 14 MUST CONTAIN THE RETURN ADDRESS* 01733261
.* <NAME> PRODEXIT  DSECT<,CLASS=(BAM|SVC|FSVC|LNG|PSUP|SUP|ALL       * 01750061
.*                                |BINT)>                             * 01800061
.*                                                                    * 01900061
.* REGISTER USAGE (EXCEPT FOR PRODEXIT DSECT):                        * 01950061
.*       REGISTER 15  FUNCTION CODE, RETURN CODE                      * 02000061
.*       REGISTER 0   ADD. FUNCTION CODE, ADD. RETURN CODE            * 02050061
.*       REGISTER 1   POINTER TO INPUT AREA, OR 1ST HALF OF TOKEN     * 02100061
.*       REGISTER 2   2ND HALF OF TOKEN                               * 02150061
.*                                                                    * 02200061
.* FUNCTION CODES FOR SVC 124 IN REGISTER 15 AND 0                    * 02250061
.*                                                                    * 02300061
.* FUNCTION                   REG 15   REG 0                          * 02370051
.* PRODID                                                             * 02400061
.*  AUTH=YES                    0        1                            * 02500051
.*  AUTH=NO                     0        0                            * 02550041
.*  CHECK                       3        -                            * 02600031
.*  DEFINE                      1                                     * 02650021
.*  DELETE                      2                                     * 02700011
.*  DSECT                       -        -                            * 02750001
.*                                                                    * 02800061
.* PRODEXIT                                                           * 02850061
.*  ACTIVATE (PSTATE)           8        -                     @D61YDHK 02930051
.*  ACTIVATE (SSTATE)           D        -                     @D61YDHK 02960041
.*  CHECK                       7        -                            * 02990031
.*  DEFINE                      5        -                            * 03020021
.*  DELETE                      6        -                            * 03050011
.*  DISABLE                     0        3                            * 03080001
.*  DISABLE,DYN=YES,ID=SCLFCT   F        -                     @D61YDHK 03109991
.*  DSECT                       -        -                            * 03139981
.*  ENABLE                      0        2                            * 03169971
.*  ENABLE,DYN=YES,ID=SCLFCT    E        -                     @D61YDHK 03199961
.*  RETURN                      9        -                            * 03229951
.*                                                                    * 03350061
.* CHANGE ACTIVITIES:                                                 * 03400061
.* A000000-999999                                              @D61EDEM 03450061
.* @DY43684 ADDITIONAL VENDOR REQUIREMENTS                     @DY43684 03470061
.* @DY43775 ADD. V. REQUIREMENTS ( EXT AND SVC EXITS )         @DY43775 03486051
.* @D61YDHK VI PERFORMANCE IMPROVEMENT / DYNAMIC SERVICES      @D61YDHK 03492041
.*                                                                    * 03500061
.**** END OF SPECIFICATIONS ******************************************* 03550061
.* * * * * *  CHECK FOR CORRECT FUNCTION/PARAMETERS  * * * * * * * *    03600061
         AIF   (T'&DYN EQ 'O').FUN06                           @D61YDHK 03656051
         AIF   ('&FUNC' EQ 'ENABLE' OR '&FUNC' EQ 'DISABLE').FUN02      03662041
         MNOTE 8,' PARAMETER ''DYN='' NOT ALLOWED FOR FUNC=&FUNC,  GENE*03668031
               RATION SUPPRESSED'                              @D61YDHK 03674021
         SPACE 3                                               @D61YDHK 03680011
         MEXIT                                                 @D61YDHK 03686001
.FUN02   ANOP                                                  @D61YDHK 03691991
         AIF   ('&DYN' EQ 'YES' OR '&DYN' EQ 'NO').FUN06       @D61YDHK 03697981
         MNOTE 8,' DYN=&DYN INVALID, VALID ARE YES OR NO, GENERATION   *03703971
               SUPPRESSED'                                     @D61YDHK 03709961
         SPACE 3                                               @D61YDHK 03715951
         MEXIT                                                 @D61YDHK 03721941
.FUN06   AIF   (T'&FUNC NE 'O').FUN10                          @D61YDHK 03727931
.FUN07   MNOTE 8,' MACRO FUNCTION OMITTED, GENERATION SUPPRESSED'       03733921
         SPACE 3                                                        03750061
         MEXIT                                                          03800061
.FUN10   AIF   (N'&SYSLIST EQ 1).FUN20                                  03850061
.FUN12   MNOTE 8,' MORE THAN ONE POSITIONAL OPERAND, GENERATION SUPPRES*03930051
               SED'                                            @D61YDHK 03960041
         SPACE 3                                                        04000061
         MEXIT                                                          04050061
.FUN20   AIF   ('&FUNC' EQ 'DSECT').DS10                                04100061
         AIF   ('&NAME' EQ '').FUN30                                    04150061
&NAME    DS    0H                                                       04200061
.FUN30   ANOP                                                           04250061
         AIF   ('&FUNC' EQ 'ACTIVATE' AND &IJBSGEN).ACT20               04287561
         AIF   ('&FUNC' EQ 'ACTIVATE' AND T'&ID NE 'O').ACT20           04306261
         AIF   ('&FUNC' EQ 'ACTIVATE').AREA10                           04325061
         AIF   ('&FUNC' EQ 'CHECK' OR '&FUNC' EQ 'DEFINE').AREA10       04362561
         AIF   ('&FUNC' EQ 'DELETE' OR '&FUNC' EQ 'RETURN').NOTH10      04400061
         AIF   ('&FUNC' EQ 'ENABLE' OR '&FUNC' EQ 'DISABLE').NOTH10     04450061
         MNOTE 8,' &FUNC IS NO VALID FUNCTION, GENERATION SUPPRESSED'   04500061
         SPACE 3                                                        04550061
         MEXIT                                                          04600061
.* * * * *  ONLY AREA REQUIRED FOR ACTIVATE, CHECK, DEFINE * * * * *    04650061
.AREA10  ANOP                                                           04700061
         AIF   (T'&AREA NE 'O').AREA20                                  04750061
         MNOTE 8,' ''AREA='' REQUIRED BUT MISSING, GENERATION SUPPRESSE*04783361
               D'                                                       04816661
         SPACE 3                                                        04850061
         MEXIT                                                          04900061
.AREA20  AIF   (T'&CLASS NE 'O' OR T'&ID NE 'O').AREA30                 04937561
         AIF   (T'&RC EQ 'O').AREA40                                    04975061
.AREA30  MNOTE 8,' ''AREA='' IS ONLY VALID PARAMETER FOR &FUNC, GENERAT*05012561
               ION SUPPRESSED'                                          05050061
         SPACE 3                                                        05150061
         MEXIT                                                          05200061
.* * * * * * * * * * *  AREA TO REGISTER 1  * * * * * * * * * * * * * * 05250061
.AREA40  ANOP                                                           05275061
&IJBAR   SETB  1                  AREA PASSED BY CALLER                 05300061
         AIF   ('&AREA' EQ '(1)').AREA60                                05325061
         AIF   ('&AREA'(1,1) EQ '(').AREA50                             05350061
         LA    1,&AREA                                                  05400061
         AGO   .AREA60                                                  05500061
.AREA50  ANOP                                                           05550061
&IJBR1   SETC  '&AREA'(2,K'&AREA-2)                                     05600061
         LR    1,&IJBR1                                                 05650061
.AREA60  AIF   ('&FUNC' EQ 'ACTIVATE' AND &IJBSGEN).ACT50               05683361
         AIF   ('&FUNC' EQ 'ACTIVATE' AND T'&ID NE 'O').ACT60           05699961
         AIF   ('&FUNC' EQ 'ACTIVATE').ACT10                            05716661
         AIF   ('&FUNC' EQ 'CHECK').CHEK10                              05750061
.* * * * * * * * * * * *  FUNC=DEFINE  * * * * * * * * * * * * * *      05800061
.DEF10   LA    15,5               FUNCTION=DEFINE                       05850061
         SVC   124                                                      05900061
         SPACE 3                                                        05950061
         MEXIT                                                          06000061
.* * * * * * * * * * * *  FUNC=CHECK  * * * * * * * * * * * * * *       06050061
.CHEK10  ANOP                                                           06100061
         LA    15,7               FUNCTION=CHECK                        06150061
         SVC   124                                                      06200061
         SPACE 3                                                        06250061
         MEXIT                                                          06300061
.* * * * * * * * * * * *  FUNC=ACTIVATE * * * * * * * * * * * * *       06350061
.* * * * * *  ACTIVATE IN PPSTATE  * * * * * * * * * * * * * *          06400061
.ACT10   LA    15,8               FUNCTION=ACTIVATE                     06450061
         SVC   124                                                      06550061
         SPACE 3                                                        06600061
         MEXIT                                                          06650061
.* * * * * *  ACTIVATE IN SSTATE  * * * * * * * * * * * * * *           06657561
.ACT20   AIF   (T'&ID NE 'O').ACT25                                     06665061
         MNOTE 8,' ACTIVATE IN SSTATE REQUIRES ''ID='', GENERATION SUPP*06672561
               RESSED'                                                  06680061
         SPACE 3                                                        06687561
         MEXIT                                                          06695061
.ACT25   ANOP                                                           06695861
         AIF   (T'&RC EQ 'O' OR '&RC' EQ 'NO').ACT30                    06696661
&IJBRC   SETB  1                  CALLER EXPECTS RETURN CODE IN R15     06697461
         AIF   ('&RC' EQ 'YES').ACT30                                   06698261
         MNOTE 8,' RC=&RC INVALID, VALID ARE YES OR NO, GENERATION SUPP*06699061
               RESSED'                                                  06699861
         SPACE 3                                                        06700661
         MEXIT                                                          06701461
.ACT30   ANOP                                                           06702561
         AIF   (T'&CLASS EQ 'O').ACT40                                  06710061
         MNOTE 8,' ''CLASS='' INVALID FOR ACTIVATE, GENERATION SUPPRESS*06717561
               ED'                                                      06725061
         SPACE 3                                                        06732561
         MEXIT                                                          06740061
.ACT40   AIF   (T'&AREA NE 'O').AREA40                                  06747561
         AIF   (NOT &IJBSGEN).ACT60                                     06749361
.* * * *   SSTATE ACTIVATE WITHIN SUPERVISOR * * * * * * * * * *        06751261
.* SET RID                                                              06752461
.*                                                                      06753661
.ACT50   ANOP                                                           06755061
&IJBRID  SETA  0                  RID 0 EXIT                            06756161
         AIF ('&ID' NE 'SVC' AND '&ID' NE 'EXT' AND                    X06757551
               '&ID' NE 'PCKEX').ACT52                         @D61NDHK 06757841
         SR    9,9                MAY NOT BE CLEARED BY IJBVEND         06758361
.ACT52   AIF ('&ID' EQ 'POSTSIO' OR '&ID' EQ 'IOINT').ACT54             06760561
         AIF ('&ID' EQ 'PCKEX' OR '&ID' EQ 'EXT').ACT54                 06761661
         AIF ('&ID' EQ 'FSVC').ACT54                           @DY43684 06763251
&IJBRID  SETA  4                  RID 4 EXIT                            06763861
.ACT54   ANOP                                                           06765561
         AIF ('&ID' NE 'PCKEX' AND '&ID' NE 'SVC').ACT55       @DY43684 06765631
&IJBSRC  SETB  1                  SET FLAG FOR SPECIAL TREATMNT@DY43684 06765701
.ACT55   ANOP                                                  @DY43684 06765771
         STM   13,15,VSEVISA      SAVE REG 13,14,15                     06765861
         AIF ('&ID' NE 'POSTSIO').ACT56                                 06766161
         IPM   13                 INSERT CC AND PROGRAM MASK            06766561
         ST    13,PRODXSCC        SAVE IT                               06767561
.ACT56   ANOP                                                           06768761
         L     13,APRODACT        POINT TO BOOTSTRAP FOR PRODEXIT ACT   06773061
*        BASSM 14,13                                                    06777461
         DC    0H'0',X'0C',AL.4(14,13)  BASSM 14,13                     06781161
         DC    AL4(&ID)           TYPE OF CLASS, SUBCLASS               06785061
         DC    AL3(&ID.C)         ZERO BYTE OFFSET AND MASK             06788061
         DC    B'&IJBSRC.&IJBDYN.000&IJBSGEN.&IJBRC.&IJBAR.'   @D61YDHK 06791741
*           X'80' SPECIAL RC TREATMENT DURING ACTIVATE         @DY43684 06792041
*           X'40' DYN. SERVICES ( ENABLE / DISABLE )           @D61YDHK 06792241
*           X'04' GENERATED WITHIN SUPERVISOR                  @DY43684 06792531
*           X'02' RC ACCEPTED                                  @DY43684 06793021
*           X'01' AREA PASSED DURING ACTIVATE                  @DY43684 06793511
         DC    AL2(&IJBRID)       RID IN WHICH EXIT WILL RUN            06794561
         AIF ('&ID' NE 'POSTSIO').ACT58                                 06795061
         L     13,PRODXSCC        GET CC AND PROGRAM MASK               06795661
         SPM   13                 SET CC AND PROGRAM MASK               06796061
.ACT58   ANOP                                                           06796561
         LM    13,15,VSEVISA      RESTORE USER REG 13,14,15             06798261
         SPACE 3                                                        06800061
         MEXIT                                                          06850061
.* * * *   SSTATE ACTIVATE NOT WITHIN SUPERVISOR * * * * * * * * * *    06851761
.ACT60   ANOP                                                           06853461
         AIF ('&ID' NE 'PCKEX' AND '&ID' NE 'SVC').ACT65       @DY43684 06853661
&IJBSRC  SETB  1                  SET FLAG FOR SPECIAL TREATMNT@DY43684 06853861
.ACT65   ANOP                                                  @DY43684 06854061
&IJBRID  SETA  4                                                        06854261
         SAVE  (14,12)            SAVE PROGRAM'S REG.S WITH R13         06855161
         ASYSCOM 14                                                     06856861
         L     14,IJBSPAVT-SYSCOM(,14) POINT TO SUPAVT                  06859261
         L     14,ASUPAVTE-SUPAVT(,14) POINT TO SUPAVTEX                06861661
         L     14,AVSEVISA-SUPAVTEX(,14) POINT TO REG SAVE AREA         06864061
         ST    13,0(,14)          SAVE POINTER TO PROGRAM'S SAVE AREA   06866461
         L     13,APRODACT-SYSS00(,0) POINT TO ACTIVATE ROUTINE         06868861
*        BASSM 14,13              BRANCH TO IT                          06871561
         DC    0H'0',X'0C',AL.4(14,13)  BASSM 14,13                     06872661
         DC    AL4(&ID)           TYPE OF CLASS, SUBCLASS               06873861
         DC    AL3(&ID.C)         ZERO BYTE OFFSET AND MASK             06874261
         DC    B'&IJBSRC.&IJBDYN.000&IJBSGEN.&IJBRC.&IJBAR.'   @D61YDHK 06874781
*           X'80' SPECIAL RC TREATMENT DURING ACTIVATE         @DY43684 06874841
*           X'40' DYN. SERVICES ( ENABLE / DISABLE )           @D61YDHK 06874881
*           X'04' GENERATED WITHIN SUPERVISOR                  @DY43684 06874931
*           X'02' RC ACCEPTED                                  @DY43684 06875021
*           X'01' AREA PASSED DURING ACTIVATE                  @DY43684 06875111
         DC    AL2(&IJBRID)       RID IN WHICH EXIT WILL RUN            06875261
         ASYSCOM 14               RESTORE USER REG.S UPON RETURN FROM   06875561
         L     14,IJBSPAVT-SYSCOM(,14) POINT TO SUPAVT                  06878461
         L     14,ASUPAVTE-SUPAVT(,14) POINT TO SUPAVTEX                06881361
         L     14,AVSEVISA-SUPAVTEX(,14) POINT TO REG SAVE AREA         06884261
         L     13,0(,14)          POINT TO REG SAVE AREA OF PROGRAM     06887161
         LM    14,12,12(13)       RELOAD REGISTERS                      06890361
         SPACE 3                                                        06894261
         MEXIT                                                          06895961
.*                                                             @D61YDHK 06896961
.*  * * SELECT ENABLE/DISABLE WITH ADDITIONAL PARAMETERS       @D61YDHK 06897961
.*                                                                      06900061
.*  * * * * * * * NOTHING FOR DELETE, RETURN * * * * * * * * * @D61YDHK 06980051
.NOTH10  AIF   (T'&AREA NE 'O' OR T'&CLASS NE 'O' OR                   *07010041
               T'&RC NE 'O').NOTH20                            @D61YDHK 07040031
         AIF   (T'&ID EQ 'O'AND T'&DYN EQ 'O').NOTH30          @D61YDHK 07070021
         AIF   ('&FUNC' EQ 'ENABLE' OR '&FUNC' EQ 'DISABLE').NOTH40     07100011
.NOTH20  MNOTE 8,' &FUNC EITHER REQUIRES NO ADDITIONAL PARAMETERS OR ON*07130001
               E OR MORE PARAMETERS ARE INVALID FOR &FUNC, GENERATION  *07159991
               SUPPRESSED'                                     @D61YDHK 07189981
         SPACE 3                                                        07250061
         MEXIT                                                          07300061
.NOTH30  AIF   ('&FUNC' EQ 'RETURN').RET10                              07350061
.NOTH40  AIF   ('&FUNC' EQ 'ENABLE').ENAB10                    @D61YDHK 07420051
         AIF   ('&FUNC' EQ 'DISABLE').DIS10                             07450061
.* * * * * * * * * * * *  FUNC=DELETE  * * * * * * * * * * * * * *      07500061
.DEL10   ANOP                                                           07550061
         LA    15,6               FUNCTION=DELETE                       07600061
         SVC   124                                                      07650061
         SPACE 3                                                        07700061
         MEXIT                                                          07750061
.* * * * * * * * * * * *  ENABLE FUNCTIONS * * * * * * * * * * @D61YDHK 07820051
.ENAB10  ANOP                                                           07850061
         AIF   ('&DYN' NE 'YES' AND T'&ID EQ 'O').ENAB40       @D61YDHK 07851061
         AIF   ('&DYN' EQ 'YES' AND T'&ID EQ 'O').DISER10      @D61YDHK 07852061
         AIF   ('&DYN' NE 'YES' AND T'&ID NE 'O').DISER20      @D61YDHK 07853061
.*                                                             @D61YDHK 07854061
.* * * * * * * * FUNC=ENABLE,DYN=YES,ID=SCLFCT   * * * * * * * @D61YDHK 07855061
.* * *   ID=SVC IS THE ONLY SCLFCT CURRENTLY SUPPORTED!  * * * @D61YDHK 07856061
.*                                                             @D61YDHK 07857061
&IJBDYN SETB   1                  FLAG FOR DYN. EN/DIS SERVICE @D61YDHK 07858061
         L     15,X'25C'(,0)                                   @D61YDHK 07859061
.* GET TDCPUPTR FROM LOW CORE. NOTE: LOWCORE DPLMNT DEPENDENCY @D61YDHK 07860061
         L     15,X'18'(,15)      GET CPU SAVE AREA ADDR       @D61YDHK 07861061
.* GET CPU SAVE AREA ADDR      NOTE: TCPUADR DPLMNT DEPENDENCY @D61YDHK 07862061
.* X'18' => TCPUWRK-TCPUADR                                    @D61YDHK 07863061
         STM   0,14,X'0'(15)      SAVE VENDOR REGISTERS        @D61YDHK 07864061
.* X'0'  => TWSAVE-TWCPADR     NOTE: TWCPADR DPLMNT DEPENDENCY @D61YDHK 07865061
&IJBRID  SETA  4                                               @D61YDHK 07866061
         LA    15,14              FUNCTION=ENABLE,DYN=YES      @D61YDHK 07867061
         L     13,X'ED0'(,0)      POINT TO VENDOR EXIT ROUTINE @D61YDHK 07868061
.* GET APRODACT FROM LOW CORE. NOTE: LOWCORE DPLMNT DEPENDENCY @D61YDHK 07869061
         BASSM 14,13              BRANCH TO IT                 @D61YDHK 07870061
         DC    0H'0',X'0C',AL.4(14,13)  BASSM 14,13            @D61YDHK 07871061
         DC    AL4(&ID)           TYPE OF CLASS, SUBCLASS      @D61YDHK 07872061
         DC    AL3(&ID.C)         ZERO BYTE OFFSET AND MASK    @D61YDHK 07873061
         DC    B'&IJBSRC.&IJBDYN.000&IJBSGEN.&IJBRC.&IJBAR.'   @D61YDHK 07874061
*           X'80' SPECIAL RC TREATMENT DURING ACTIVATE         @DY43684 07875061
*           X'40' DYN. SERVICES ( ENABLE / DISABLE )           @D61YDHK 07876061
*           X'04' GENERATED WITHIN SUPERVISOR                  @DY43684 07877061
*           X'02' RC ACCEPTED                                  @DY43684 07878061
*           X'01' AREA PASSED DURING ACTIVATE                  @DY43684 07879061
         DC    AL2(&IJBRID)       RID IN WHICH EXIT WILL RUN   @D61YDHK 07880061
         L     15,X'25C'(,0)                                   @D61YDHK 07881061
.* GET TDCPUPTR FROM LOW CORE. NOTE: LOWCORE DPLMNT DEPENDENCY @D61YDHK 07882061
         L     15,X'18'(,15)      GET CPU SAVE AREA ADDR       @D61YDHK 07883061
.* GET CPU SAVE AREA ADDR      NOTE: TCPUADR DPLMNT DEPENDENCY @D61YDHK 07884061
.* X'18' => TCPUWRK-TCPUADR                                    @D61YDHK 07885061
         LM    0,14,X'0'(15)      LOAD  VENDOR REGISTERS       @D61YDHK 07886061
.* X'0'  => TWSAVE-TWCPADR     NOTE: TWCPADR DPLMNT DEPENDENCY @D61YDHK 07887061
         SPACE 3                                               @D61YDHK 07888061
         MEXIT                                                 @D61YDHK 07889061
.*                                                             @D61YDHK 07890061
.* * * * * * * * * * * *  FUNC=ENABLE  * * * * * * * * * * * * * *      07891061
.*                                                             @D61YDHK 07892061
.ENAB40  ANOP                                                  @D61YDHK 07893061
         SR    15,15              INDICATE FAST PATH                    07900061
         LA    0,2                FUNCTION=ENABLE                       07950061
         SVC   124                                                      08000061
         SPACE 3                                                        08050061
         MEXIT                                                          08100061
.*                                                             @D61YDHK 08157051
.* * * * * * * * * * * * * ERROR MSGS. * * * * * * * * * * * * @D61YDHK 08164041
.*                                                             @D61YDHK 08171031
.*                                                             @D61YDHK 08178021
.* * * * * * * * * * DISABLE FUNCTIONS * * * * * * * * * * * * @D61YDHK 08185011
.*                                                             @D61YDHK 08192001
.DIS10   ANOP                                                           08200061
         AIF   ('&DYN' NE 'YES' AND T'&ID EQ 'O').DIS20        @D61YDHK 08201061
         AIF   ('&DYN' EQ 'YES' AND T'&ID EQ 'O').DISER10      @D61YDHK 08202061
         AIF   ('&DYN' NE 'YES' AND T'&ID NE 'O').DISER20      @D61YDHK 08203061
.*                                                             @D61YDHK 08204061
.* * * * * * * * FUNC=DISABLE,DYN=YES,ID=SCLFCT * * * * * * *  @D61YDHK 08205061
.* * *   ID=SVC IS THE ONLY SCLFCT CURRENTLY SUPPORTED!  * * * @D61YDHK 08206061
.*                                                             @D61YDHK 08207061
&IJBDYN SETB   1                  FLAG FOR DYN. EN/DIS SERVICE @D61YDHK 08208061
         L     15,X'25C'(,0)                                   @D61YDHK 08209061
.* GET TDCPUPTR FROM LOW CORE. NOTE: LOWCORE DPLMNT DEPENDENCY @D61YDHK 08210061
         L     15,X'18'(,15)      GET CPU SAVE AREA ADDR       @D61YDHK 08211061
.* GET CPU SAVE AREA ADDR      NOTE: TCPUADR DPLMNT DEPENDENCY @D61YDHK 08212061
.* X'18' => TCPUWRK-TCPUADR                                    @D61YDHK 08213061
         STM   0,14,X'0'(15)      SAVE VENDOR REGISTERS        @D61YDHK 08214061
.* X'0'  => TWSAVE-TWCPADR     NOTE: TWCPADR DPLMNT DEPENDENCY @D61YDHK 08215061
&IJBRID  SETA  4                                               @D61YDHK 08216061
         LA    15,15              FUNCTION=DISABLE,DYN=YES     @D61YDHK 08217061
         L     13,X'ED0'(,0)      POINT TO VENDOR EXIT ROUTINE @D61YDHK 08218061
.* GET APRODACT FROM LOW CORE. NOTE: LOWCORE DPLMNT DEPENDENCY @D61YDHK 08219061
         BASSM 14,13              BRANCH TO IT                 @D61YDHK 08220061
         DC    0H'0',X'0C',AL.4(14,13)  BASSM 14,13            @D61YDHK 08221061
         DC    AL4(&ID)           TYPE OF CLASS, SUBCLASS      @D61YDHK 08222061
         DC    AL3(&ID.C)         ZERO BYTE OFFSET AND MASK    @D61YDHK 08223061
         DC    B'&IJBSRC.&IJBDYN.000&IJBSGEN.&IJBRC.&IJBAR.'   @D61YDHK 08224061
*           X'80' SPECIAL RC TREATMENT DURING ACTIVATE         @DY43684 08225061
*           X'40' DYN. SERVICES ( ENABLE / DISABLE )           @D61YDHK 08226061
*           X'04' GENERATED WITHIN SUPERVISOR                  @DY43684 08227061
*           X'02' RC ACCEPTED                                  @DY43684 08228061
*           X'01' AREA PASSED DURING ACTIVATE                  @DY43684 08229061
         DC    AL2(&IJBRID)       RID IN WHICH EXIT WILL RUN   @D61YDHK 08230061
         L     15,X'25C'(,0)                                   @D61YDHK 08231061