         MACRO                                                          00050000
&NAME    PUTACCT &AD,&LN                                                00100000
.*       ADJUST SIO TABLE LENGTH, PROVIDE PUTACCT RETURN CODE  @DA41442 00116601
.*                                                             @DA41442 00133201
.* IBM DISK OPERATING SYSTEM                                            00150000
* VSE/POWER - PUTACCT - 5686-CF7-03                                     00200001
.*                                                                      00250000
         AGO   .ZZZ                                                     00300000
*        LICENSED MATERIALS - PROPERTY OF IBM                           00350000
*        THIS MACRO IS "RESTRICTED MATERIALS OF IBM"                    00400000
*        5686-CF7 (C) COPYRIGHT IBM CORP. 1979, 2004                    00450001
*        SEE COPYRIGHT INSTRUCTIONS                                     00500000
.ZZZ     ANOP                                                           00550000
         CNOP  0,4                 START OF PUTACCT MACRO      @DY08077 00600000
         AIF   ('&NAME' EQ '').POW0                            @DY08077 00650000
&NAME    DS    0H                                              @DY08077 00700000
.POW0    ANOP                                                  @DY08077 00750000
         AIF   ('&AD' EQ '' OR '&LN' EQ '').POW1  OMITTED OPERANDS      00800000
         AIF   ('&AD(1)' EQ '&LN(1)').POW1   = REGS, ERROR              00850000
         LR    1,&AD(1)            ADDRESS TO REG 1                     00900000
         LR    0,&LN(1)            LENGTH TO REG 0                      00950000
         STM   0,1,*+12            SAVE IN PARAMETER LIST               01000000
         BAL   0,*+16              POINT TO PARAMETER LIST              01050000
         DC    F'0'                ECB                                  01100000
         DC    F'0'                LENGTH                               01150000
         DC    F'0'                ADDRESS                              01200000
         LR    1,0                 LOAD ECB ADDRESS            @DA41442 01212501
         XC    0(4,1),0(1)         CLEAR ALL ECB AREA          @DA41442 01225001
         SPACE 1                                               @DA41442 01237501
         SVC   90                  MOVE ACCOUNT INFO TO VSE/POWER       01250000
         SPACE 1                                               @DA41442 01275001
         LR    1,0                 LOAD ECB ADDRESS                     01300000
         TM    2(1),X'80'          HAS MOVE BEEN COMPLETED              01350000
         BO    *+6                 BRANCH IF YES                        01400000
         SPACE 1                                               @DA41442 01425001
         SVC   7                   WAIT FOR COMPLETION                  01450000
         SPACE 1                                               @DA41442 01454501
         SR    0,0                 CLEAR RETURN REGISTER       @DA41442 01459001
         IC    0,0(,1)             PICK UP RETURN CODE         @DA41442 01463501
         SPACE 1                                               @DA41442 01468001
*        CONTENTS OF REGISTER 0 AND 1 HAVE BEEN DESTROYED.     @DA41442 01472501
*        REGISTER 0 CONTAINS THE FOLLOWING RETURN CODES:       @DA41442 01477001
*           0    PUTACCT REQUEST SUCCESSFUL                    @DA41442 01481501
*           4    PUTACCT REQUEST IGNORED, BECAUSE VSE/POWER    @DA41442 01486001
*                EXEC. ACC. RECORD EXTENDED BY THE USER AREA   @DA41442 01490501
*                EXCEEDS THE MAXIMUM ACCOUNT RECORD LENGTH     @DA41442 01495001
         AGO   .POW2                                                    01500000
.POW1    ANOP                                                           01550000
         MNOTE 3,'INVALID OPERAND SPECIFICATION, GENERATION TERMINATED' 01600000
.POW2    ANOP                                                           01650000
         MEND                                                           01700000
