         MACRO                                                          00050000
&NAME    PWROFF &ERROR                                                  00100000
.*                                                                      00150000
*********************************************************************** 00200000
*                                                                       00250000
.*       IBM VSE / ADVANCED FUNCTIONS                          @D31UDGN 00300000
*        SUPERVISOR - PWROFF - 5686-007-06-C440                @D31UDGN 00350000
.*                                                                      00400000
         AGO   .CPRIGHT                                                 00450000
.*                                                                      00500000
*        THIS MACRO IS "RESTRICTED MATERIALS OF IBM"           @D31UDGN 00550000
*        5686-007 (C) COPYRIGHT IBM CORP. 1979, 1989           @D31UDGN 00600000
*        ALL RIGHTS RESERVED                                   @D31UDGN 00650000
*        LICENSED MATERIALS - PROGRAM PROPERTY OF IBM          @D31UDGN 00700000
.*       SEE COPYRIGHT INSTRUCTIONS, G120-2083                 @D31UDGN 00750000
.*                                                                      00800000
.CPRIGHT ANOP                                                           00850000
*                                                                       00900000
*********************************************************************** 00950000
.*                                                                      01000000
*********************************************************************** 01050000
.*                                                                      01100000
.* A000000-999999                                              @D14BDEJ 01150000
.*                                                                      01200000
.*   MACRO NAME =  PWROFF                                               01250000
.*                                                                      01300000
.*   DESCRIPTIVE NAME =  SOFTWARE INITIATED POWER OFF                   01350000
.*                                                                      01400000
*********************************************************************** 01450000
*                                                                       01500000
         AIF   (T'&ERROR EQ 'O').GO                                     01550000
         MNOTE 8,'POSITIONAL PARAMETER SPECIFIED - MACRO IGNORED'       01600000
         MEXIT                                                          01650000
.GO      ANOP                                                           01700000
&NAME    SVC   115                                                      01750000
         MEND                                                           01800000
