         MACRO                                                          00050000
&NAME    RCB                                                            00100000
.*                                                                      00150000
         AGO   .ZZZ                                                     00200000
*********************************************************************** 00250000
*                                                                     * 00300000
*        THIS MACRO IS "RESTRICTED MATERIALS OF IBM"                  * 00350000
*        5686-007 (C) COPYRIGHT IBM CORP. 1977,1988                   * 00400000
*        ALL RIGHTS RESERVED                                          * 00450000
*        LICENSED MATERIALS - PROGRAM PROPERTY OF IBM                 * 00500000
.*       SEE COPYRIGHT INSTRUCTIONS, G120-2083                        * 00550000
*                                                                     * 00600000
*********************************************************************** 00650000
.ZZZ ANOP                                                               00700000
         CNOP  0,4                                                      00750000
&NAME    DC    2F'0'                                                    00800000
         MEND                                                           00850000
