         MACRO                                                          00050000
&NAME    RDLNE &FILEN                                                   00100000
.* IBM DISK OPERATING SYSTEM                                   @DC28702 00150000
* 5745-SC-OCR RDLNE RELEASE 28.0                               @DC28702 00200000
*                                                                       00250000
* COPYRIGHT = THIS MACRO IS "RESTRICTED MATERIALS OF IBM"     *@D41TDKY 00300000
*             5686-007 (C) COPYRIGHT IBM CORP. 1974, 1988     *@D41TDKY 00350000
*             ALL RIGHTS RESERVED                             *@D41TDKY 00400000
*             LICENSED MATERIALS-PROPERTY OF IBM              *@D41TDKY 00450000
.*            SEE COPYRIGHT INSTRUCTIONS, G120-2083           *@D41TDKY 00500000
*                                                                       00550000
         AIF   (T'&FILEN NE 'O').F1                                     00600000
.F0      MNOTE 0,'MISSING OR INVALID FILENAME SPECIFIED. SET TO *'      00650000
&NAME    L     1,=A(*)                 ERROR PATCH DTF TABLE ADDRESS    00700000
         AGO   .F3                                                      00750000
.F1      AIF   ('&FILEN'(1,1) NE '(').F2                                00800000
         AIF   ('&FILEN(1)' EQ '1').F4                                  00850000
&NAME    LR    1,&FILEN(1)             GET DTF TABLE ADDRESS            00900000
         AGO   .F3                                                      00950000
.F2      ANOP                                                           01000000
&NAME    L     1,=A(&FILEN)            GET DTF TABLE ADDRESS            01050000
.F3      L     15,16(1)                GET LOGICAL MODULE ADDRESS       01100000
         AGO   .F5                                                      01150000
.F4      ANOP                                                           01200000
&NAME    L     15,16(1)                GET LOGICAL MODULE ADDRESS       01250000
.F5      BAL   14,4(15)                BRANCH TO RDLNE ROUTINE          01300000
         MEND                                                           01350000
