         MACRO                                                          00050000
&NAME    READHCF &DUMP=NO                                               00100000
*                                                                       00142861
*        SUPERVISOR - READHCF - 5686-066-06                    @D61CDUG 00185661
         AGO   .NOCOPY                                         @D61CDUG 00228461
.*                                                                      00271261
*********************************************************************** 00314061
*                                                                       00356861
*        LICENSED MATERIALS - PROPERTY OF IBM                  @D61CDUG 00399661
*        "RESTRICTED MATERIALS OF IBM"                         @D61CDUG 00442461
*        5686-066 (C) COPYRIGHT IBM CORP. 1980, 1994           @D61CDUG 00485261
*                                                                       00528061
*********************************************************************** 00570861
.NOCOPY  ANOP                                                  @D61CDUG 00613661
.*                                                             @D61CDUG 00656461
.* /* START OF SPECIFICATIONS ***************************************** 00700000
.*                                                                      00750000
.*01* MODULE NAME = READHCF                                             00800000
.*                                                                      00850000
.*01* MODULE TYPE = HARD COPY FILE COMMUNICATION MACRO                  00900000
.*                                                                      00950000
.*01* DESCRIPTIVE NAME = READ ONE LOGICAL RECORD FROM HARD COPY FILE    01000000
.*                                                                      01050000
.*01* NOTES = NEW MODULE FOR DOS /VSE AF 1.3                            01100000
.*              HARD COPY FILE SUPPORT                                  01150000
.*                                                                      01200000
.*01* CHANGE ACTIVITIES = AS FOLLOWS                                    01250000
.*             BLOCKED HARD COPY FILE                          @D37ADRP 01300000
.*A000000-999999                                               @D37ADRP 01350000
.*                                                                      01400000
.* /* END OF SPECIFICATION ******************************************** 01450000
.*                                                                      01500000
.*   R2=36 INDICATION FOR READHCF SERVICE                               01550000
.*                                                                      01600000
         AIF   (N'&SYSLIST NE 2).ERR                                    01650000
&NAME    DS    0H                                                       01700000
         AIF   ('&SYSLIST(1)'(1,1) NE '(').ERR                          01750000
         AIF   ('&SYSLIST(1)'(2,2) EQ '1)').GENOP2                      01800000
         LR    1,&SYSLIST(1,1)    GET ADDR OF HCFCB                     01850000
.GENOP2  ANOP                                                           01900000
         AIF   ('&SYSLIST(2)'(1,1) EQ '(').R2                           01950000
         L     0,=A(&SYSLIST(2))  GET ADDR OF IO-AREA                   02000000
         AGO   .GENBAL                                                  02050000
.R2      ANOP                                                           02100000
         AIF   ('&SYSLIST(2)'(2,2) EQ '0)').GENBAL                      02150000
         LR    0,&SYSLIST(2,1)    GET ADDR OF IO-AREA                   02200000
.GENBAL  ANOP                                                           02250000
         AIF   ('&DUMP' EQ 'YES').DMP                                   02300000
         ASYSCOM 2                                                      02350000
         ICM   2,7,X'35'(2)       GET 24 BIT ADDR OF CRTTAB    @D61CDUG 02400061
         L     15,X'24'(2)        GET ENTRY POINT ADDR                  02450000
         AGO   .NODMP                                                   02500000
.DMP     ANOP                                                           02550000
         L     15,ACONTROL        GET ENTRY POINT ADDR                  02600000
.NODMP   ANOP                                                           02650000
         LA    2,36               INDICATE READHCF                      02700000
         BALR  14,15              INVOKE READHCF SERVICE                02750061
         MEXIT                                                          02800000
.ERR     MNOTE 5,'INCORRECT POS. OPERANDS SPECIFIED IN READHCF MACRO IN*02850000
               STRUCTION, GENERATION TERMINATED'                        02900000
         MEND                                                           02950000
