       MACRO                                                            00050000
&NAME  RETURN  &REGS,&RC=                                               00100000
       LCLA  &R1,&R2                                                    00150000
       LCLA  &KAREGS                                                    00200000
       LCLB  &BRC                                              @D51IDMZ 00250000
.* IBM  DISK OPERATING SYSTEM                                           00300000
* SUPERVISOR - RETURN - 5686-032-06                                     00350000
       AGO   .ZZZ                                              @D31UDMZ 00400000
*      LICENSED MATERIALS - PROPERTY OF IBM                    @D31UDMZ 00450000
*      THIS MACRO IS "RESTRICTED MATERIALS OF IBM"             @D31UDMZ 00500000
*      5686-032 (C) COPYRIGHT IBM CORP. 1977, 1990             @D51IDMZ 00550000
*      SEE COPYRIGHT INSTRUCTIONS                              @D31UDMZ 00600000
.ZZZ   ANOP                                                    @D31UDMZ 00650000
       AIF   (T'&NAME EQ 'O').NONAM                            @D51IDMZ 00700000
&NAME    DS    0H                                              @D51IDMZ 00750000
.NONAM ANOP                                                    @D51IDMZ 00800000
       AIF   (T'&RC EQ 'O').NORC                               @D51IDMZ 00850000
&BRC   SETB  1                                                 @D51IDMZ 00900000
       AIF   ('&RC'(1,1) NE '(').RCVAL  NO REGISTER NOTATION   @D51IDMZ 00950000
       AIF   ('&RC(1)' EQ '15').NORC 15 ALREADY LOADED         @D51IDMZ 01000000
         LR    15,&RC(1)             LOAD RETURN CODE REGISTER          01050000
       AGO   .NORC                                             @D51IDMZ 01100000
.RCVAL ANOP                                                    @D51IDMZ 01150000
         LA    15,&RC                LOAD RETURN CODE          @D51IDMZ 01200000
.NORC  ANOP                                                    @D51IDMZ 01250000
       AIF   (T'&REGS EQ 'O').J                                         01300000
       AIF   (T'&REGS(1) EQ 'N').E                                      01350000
       MNOTE 1,'FIRST REGISTER NOT A SELF-DEFINING VALUE. 14 ASSUMED.'  01400000
       AGO   .F                                                         01450000
.E     ANOP                                                             01500000
&KAREGS  SETA  K'&REGS                                                  01550000
       AIF   ('&REGS'(1,1) EQ '(' AND '&REGS'(&KAREGS,1) EQ ')').C      01600000
         MNOTE 0,'OPERAND NOT ENCLOSED IN PARENTHESES - IN ERROR IF    *01650000
                MORE THAN ONE OPERAND'                                  01700000
&R1    SETA  &REGS                                                      01750000
       AGO   .D                                                         01800000
.C     ANOP                                                             01850000
&R1    SETA  &REGS(1)                                                   01900000
.D     AIF   (&R1 NE 13 AND &R1 LE 15).A                                01950000
     MNOTE 3,'1ST REG MUST NOT BE 13 OR GREATER THAN 15. 14 ASSUMED.'   02000000
.F     ANOP                                                             02050000
&R1    SETA  14                                                         02100000
.A     AIF   (N'&REGS EQ 1).ST                                          02150000
       AIF   (T'&REGS(2) EQ 'N').H                                      02200000
       MNOTE 1,'2ND REGISTER NOT A SELF-DEFINING VALUE. 12 ASSUMED.'    02250000
       AGO   .G                                                         02300000
.H     ANOP                                                             02350000
&R2    SETA  &REGS(2)                                                   02400000
       AIF     (&R1 GE 14 AND (&R2 GE &R1 AND &R2 LE 15 OR &R2 LE 12)  -02450000
               OR &R1 LE &R2 AND &R2 LE 12).B                           02500000
     MNOTE 3,'IMPROPER RANGE OF REGISTERS. 2ND REG = 12 ASSUMED.'       02550000
.G     ANOP                                                             02600000
&R2    SETA  12                                                         02650000
.B     ANOP                                                             02700000
       AIF   (NOT &BRC).LM0         NO RETURN CODE SPECIFIED   @D51IDMZ 02750000
       AIF   (&R1 GE 14 AND &R2 NE 14).RCSP0                   @D51IDMZ 02800000
       AGO   .LM0                   LOAD OF R15 NOT REQUESTED  @D51IDMZ 02850000
.RCSP0 ANOP                                                    @D51IDMZ 02900000
       AIF   (&R1 EQ 14).RCSP1      LOAD REGISTER 14           @D51IDMZ 02950000
       AIF   (&R2 EQ 15).J          NO LOAD NECESSARY          @D51IDMZ 03000000
       AGO   .RCSP2                 SKIP LOADING OF REG 15     @D51IDMZ 03050000
.RCSP1 ANOP                                                    @D51IDMZ 03100000
         L     &R1,12+4*(&R1+2-(&R1+2)/16*16)(13)                       03150000
       AIF   (&R2 EQ 15).J          DO NOT LOAD REGISTER 15    @D51IDMZ 03200000
.RCSP2 ANOP                                                    @D51IDMZ 03250000
&R1    SETA  0                      PREPARE FOR LOAD MULTIPLE  @D51IDMZ 03300000
.LM0   ANOP                                                    @D51IDMZ 03350000
       AIF   (&R1 EQ &R2).ST0                                  @D51IDMZ 03400000
         LM    &R1,&R2,12+4*(&R1+2-(&R1+2)/16*16)(13)                   03450000
         BR    14                                                       03500000
       MEXIT                                                            03550000
.ST    ANOP                                                             03600000
       AIF   (&BRC AND &R1 EQ 15).J      DO NOT DESTROY REG.15 @@@@@@MZ 03650000
.ST0   ANOP                                                             03700000
         L     &R1,12+4*(&R1+2-(&R1+2)/16*16)(13)                       03750000
         BR    14                                                       03800000
         MEXIT                                                          03850000
.J       ANOP                                                           03900000
         BR  14                                                         03950000
         MEND                                                           04000000
