* N O T E   EFFECTIVE WITH THE SWITCH OF VSAM AND VTAM TO PROGRAM       00050000
*           PRODUCTS, ALL NEW KEYWORDS ARE IMPLEMENTED AS ELEMENTS      00100000
*           IN THE SUBLISTS OF THE PARMS, PARM2, AND PARM3 KEYWORDS.    00150000
*           AS SUCH, THEY ARE VALIDITY CHECKED BY THE INDIVIDUAL        00200000
*           ACCESS METHODS, NOT BY THE CONTROL BLOCK MANIPULATION       00250000
*           MACROS.                                                     00300000
*                                                                       00350000
         MACRO                                                          00400000
&NAME    RPL ,                    INT  ACB  RPL  NIB  EXLST            *00450000
               &AAREA=,                      X                         *00500000
               &AAREALN=,                    X                         *00550000
               &ACB=,                        X                         *00600000
               &AM=,               X                                   *00650000
               &AREA=,                       X                         *00700000
               &AREALEN=,                    X                         *00750000
               &ARECLEN=,                    X                         *00800000
               &ARG=,                        X                         *00850000
               &BRACKET=,                    X                         *00900000
               &BRANCH=,                     X                         *00950000
               &CHAIN=,                      X                         *01000000
               &CHNGDIR=,                    X                         *01050000
               &CODESEL=,                    X                 @D32DCAP*01100000
               &CONTROL=,                    X                         *01150000
               &ECB=,                        X                         *01200000
               &EXIT=,                       X                         *01250000
               &IBSQAC=,                     X                         *01300000
               &IBSQVAL=,                    X                         *01350000
               &KEYLEN=,                     X                         *01400000
               &MSGAREA=,                    X                         *01450000
               &MSGLEN=,                     X                         *01500000
               &NIB=,                        X                         *01550000
               &NXTRPL=,                     X                         *01600000
               &OBSQAC=,                     X                         *01650000
               &OBSQVAL=,                    X                         *01700000
               &OPTCD=,                      X                         *01750000
               &POST=,                       X                         *01800000
               &RECLEN=,                     X                         *01850000
               &RESPOND=,                    X                         *01900000
               &RTYPE=,                      X                         *01950000
               &SEQNO=,                      X                         *02000000
               &SIGDATA=,                    X                 @D32DCAP*02050000
               &SSENSEO=,                    X                         *02100000
               &SSENSMO=,                    X                         *02150000
               &STYPE=,                      X                         *02200000
               &TRANSID=,                    X                         *02250000
               &USENSEO=,                    X                         *02300000
               &PARMS=,                      X                 @D35ZE86*02350000
               &PARM2=,                      X                 @D35ZE86*02400000
               &PARM3=                       X                 @D35ZE86 02450000
.*                                                                      02500000
.* IBM DISK OPERATING SYSTEM                                            02550000
*  VSAM - RPL - 568606605(15C)  -  VERSION 6 RELEASE 2                  02600000
.*                                                                      02650000
.* /* START OF SPECIFICATIONS ***************************************** 02700000
.*                                                                      02750000
.*01* MODULE-NAME = RPL (DOS/VS)                                        02800000
.*                                                                      02850000
.*01 * DESCRIPTIVE-NAME = REQUEST PARAMETER LIST ROOT MACRO             02900000
.*                                                                      02950000
.*01* COPYRIGHT =                                                       03000000
.*       568606605 COPYRIGHT IBM CORP 1979 1996                         03050000
.*       LICENSED MATERIAL - PROGRAM PROPERTY OF IBM                    03100000
.*       REFER TO COPYRIGHT INSTRUCTIONS                                03150000
.*                FORM NUMBER G120-2083                                 03200000
.*                                                                      03250000
.*01* STATUS =                                                          03300000
.*                                                                      03350000
.*01* FUNCTION = ENSURES THAT PARAMETERS SPECIFIED BY THE USER ARE      03400000
.*        VALID FOR THE ACCESS METHOD SPECIFIED.  THEN PASSES CONTROL   03450000
.*        TO THE ACCESS METHOD INTERNAL MACROS WHICH COMPLETE THE       03500000
.*        VALIDITY CHECKING AND GENERATE THE RPL.                       03550000
.*                                                                      03600000
.*01* MODULE-TYPE = MACRO                                               03650000
.*                                                                      03700000
.*02*   PROCESSOR = /370 ASSEMBLER                                      03750000
.*                                                                      03800000
.*01* INPUT = SEE PROTOTYPE STATEMENT                                   03850000
.*                                                                      03900000
.*01* OUTPUT = RPL GENERATED                                            03950000
.*                                                                      04000000
.*01* EXIT-NORMAL = NA                                                  04050000
.*                                                                      04100000
.*01* EXIT-ERROR = MNOTES ISSUED FOR ERROR CONDITIONS.  GENERATION      04150000
.*        CONTINUES                                                     04200000
.*                                                                      04250000
.*01* MACROS = IKQERMAC                                                 04300000
.*        IKQRPL1                                                       04350000
.*        ISTRPL1                                                       04400000
.*                                                                      04450000
.*01* CHANGE-ACTIVITY = VSAM/VTAM INDEPENDENCE OF PROGRAM PRODUCTS      04500000
.*                                                             @D35ZE86 04550000
.*                                                                      04600000
.**** END OF SPECIFICATIONS ******************************************/ 04650000
.*                                                                      04700000
         AIF ('&AM' EQ '').VSMRPL       DOS/VS VSAM EXPANSION           04750000
         AIF ('&AM' EQ 'VSAM').VSMRPL   DOS/VS VSAM EXPANSION           04800000
         AIF ('&AM' EQ 'VTAM').VTMRPL   DOS/VS VTAM EXPANSION           04850000
         IKQERMAC 3,AM,&AM              INVALID ACCESS METHOD           04900000
.*                                                                      04950000
.*       TEST FOR NON-VSAM KEYWORDS SPECIFIED FOR AM=VSAM               05000000
.*                                                                      05050000
.VSMRPL  ANOP                                                           05100000
         AIF   ('&AAREA' EQ '').VSMA010                                 05150000
         IKQERMAC 11,AAREA,VSAM         AAREA    IS A VTAM KEYWORD      05200000
.VSMA010 ANOP                                                           05250000
         AIF   ('&AAREALN' EQ '').VSMA020                               05300000
         IKQERMAC 11,AAREALN,VSAM       AAREALN  IS A VTAM KEYWORD      05350000
.VSMA020 ANOP                                                           05400000
         AIF   ('&ARECLEN' EQ '').VSMA030                               05450000
         IKQERMAC 11,ARECLEN,VSAM       ARECLEN  IS A VTAM KEYWORD      05500000
.VSMA030 ANOP                                                           05550000
         AIF   ('&BRACKET' EQ '').VSMA040                               05600000
         IKQERMAC 11,BRACKET,VSAM       BRACKET  IS A VTAM KEYWORD      05650000
.VSMA040 ANOP                                                           05700000
         AIF   ('&BRANCH' EQ '').VSMA050                                05750000
         IKQERMAC 11,BRANCH,VSAM        BRANCH   IS A VTAM KEYWORD      05800000
.VSMA050 ANOP                                                           05850000
         AIF   ('&CHAIN' EQ '').VSMA060                                 05900000
         IKQERMAC 11,CHAIN,VSAM         CHAIN    IS A VTAM KEYWORD      05950000
.VSMA060 ANOP                                                           06000000
         AIF   ('&CHNGDIR' EQ '').VSMA070                               06050000
         IKQERMAC 11,CHNGDIR,VSAM       CHNGDIR  IS A VTAM KEYWORD      06100000
.VSMA070 ANOP                                                           06150000
         AIF   ('&CODESEL' EQ '').VSMA075                      @D32DCAP 06200000
         IKQERMAC 11,CODESEL,VSAM       CODESEL  IS A VTAM KEYW@D32DCAP 06250000
.VSMA075 ANOP                                                  @D32DCAP 06300000
         AIF   ('&CONTROL' EQ '').VSMA080                               06350000
         IKQERMAC 11,CONTROL,VSAM       CONTROL  IS A VTAM KEYWORD      06400000
.VSMA080 ANOP                                                           06450000
         AIF   ('&EXIT' EQ '').VSMA090                                  06500000
         IKQERMAC 11,EXIT,VSAM          EXIT     IS A VTAM KEYWORD      06550000
.VSMA090 ANOP                                                           06600000
         AIF   ('&IBSQAC' EQ '').VSMA110                                06650000
         IKQERMAC 11,IBSQAC,VSAM        IBSQAC   IS A VTAM KEYWORD      06700000
.VSMA110 ANOP                                                           06750000
         AIF   ('&IBSQVAL' EQ '').VSMA120                               06800000
         IKQERMAC 11,IBSQVAL,VSAM       IBSQVAL  IS A VTAM KEYWORD      06850000
.VSMA120 ANOP                                                           06900000
         AIF   ('&NIB' EQ '').VSMA140                                   06950000
         IKQERMAC 11,NIB,VSAM           NIB      IS A VTAM KEYWORD      07000000
.VSMA140 ANOP                                                           07050000
         AIF   ('&OBSQAC' EQ '').VSMA150                                07100000
         IKQERMAC 11,OBSQAC,VSAM        OBSQAC   IS A VTAM KEYWORD      07150000
.VSMA150 ANOP                                                           07200000
         AIF   ('&OBSQVAL' EQ '').VSMA160                               07250000
         IKQERMAC 11,OBSQVAL,VSAM       OBSQVAL  IS A VTAM KEYWORD      07300000
.VSMA160 ANOP                                                           07350000
         AIF   ('&POST' EQ '').VSMA170                                  07400000
         IKQERMAC 11,POST,VSAM          POST     IS A VTAM KEYWORD      07450000
.VSMA170 ANOP                                                           07500000
         AIF   ('&RESPOND' EQ '').VSMA180                               07550000
         IKQERMAC 11,RESPOND,VSAM       RESPOND  IS A VTAM KEYWORD      07600000
.VSMA180 ANOP                                                           07650000
         AIF   ('&RTYPE' EQ '').VSMA190                                 07700000
         IKQERMAC 11,RTYPE,VSAM         RTYPE    IS A VTAM KEYWORD      07750000
.VSMA190 ANOP                                                           07800000
         AIF   ('&SEQNO' EQ '').VSMA200                                 07850000
         IKQERMAC 11,SEQNO,VSAM         SEQNO    IS A VTAM KEYWORD      07900000
.VSMA200 ANOP                                                           07950000
         AIF   ('&SIGDATA' EQ '').VSMA205                      @D32DCAP 08000000
         IKQERMAC 11,SIGDATA,VSAM       SIGDATA  IS A VTAM KWD @D32DCAP 08050000
.VSMA205 ANOP                                                  @D32DCAP 08100000
         AIF   ('&SSENSEO' EQ '').VSMA210                               08150000
         IKQERMAC 11,SSENSEO,VSAM       SSENSEO  IS A VTAM KEYWORD      08200000
.VSMA210 ANOP                                                           08250000
         AIF   ('&SSENSMO' EQ '').VSMA220                               08300000
         IKQERMAC 11,SSENSMO,VSAM       SSENSMO  IS A VTAM KEYWORD      08350000
.VSMA220 ANOP                                                           08400000
         AIF   ('&STYPE' EQ '').VSMA230                                 08450000
         IKQERMAC 11,STYPE,VSAM         STYPE    IS A VTAM KEYWORD      08500000
.VSMA230 ANOP                                                           08550000
         AIF   ('&USENSEO' EQ '').VSMA240                               08600000
         IKQERMAC 11,USENSEO,VSAM       USENSEO  IS A VTAM KEYWORD      08650000
.VSMA240 ANOP                                                           08700000
.*                                                                      08750000
.*       TEST FOR OS/VS EXCLUSIVE VSAM KEYWORDS                         08800000
.*                                                                      08850000
         AIF   ('&ECB' EQ '').VSMB030                      @D62DDGW     08900000
         IKQERMAC 18,ECB,DOS/VS         ECB     ONLY VALID IN OS/VS     08950000
.*       NEXT KEYWORDS ARE REQUIRED FOR CICS/ESA           @D61GDGW     08993700
.*VSMB010 ANOP                                                          09037400
.*       AIF   ('&MSGAREA' EQ '').VSMB020                               09081100
.*       IKQERMAC 18,MSGAREA,DOS/VS     MSGAREA ONLY VALID IN OS/VS     09124800
.*VSMB020 ANOP                                                          09168500
.*       AIF   ('&MSGLEN' EQ '').VSMB030                                09212200
.*       IKQERMAC 18,MSGLEN,DOS/VS      MSGLEN  ONLY VALID IN OS/VS     09255900
.VSMB030 ANOP                                                           09300000
.*                                                                      09350000
.*       FETCH THE MACRO TO COMPLETE VALIDITY CHECKING THE VSAM RPL     09400000
.*                                                                      09450000
         IKQRPL1 ,                INT  ACB  RPL  NIB  EXLST    @D35ZE86*09500000
               ACB=&ACB,                     X                         *09550000
               AM=&AM,             X                                   *09600000
               AREA=&AREA,                   X                         *09650000
               AREALEN=&AREALEN,             X                         *09700000
               ARG=&ARG,                     X                         *09750000
               KEYLEN=&KEYLEN,               X                         *09800000
               MSGAREA=&MSGAREA,             X                 @D62DDGW*09816600
               MSGLEN=&MSGLEN,               X                 @D62DDGW*09833200
               NAME=&NAME,                   X                         *09850000
               NXTRPL=&NXTRPL,               X                         *09900000
               OPTCD=&OPTCD,                 X                         *09950000
               RECLEN=&RECLEN,               X                 @D33VDVG*10000000
               TRANSID=&TRANSID,             X                 @D33VDVG*10050000
               PARMS=&PARMS,                 X                 @D35ZE86*10100000
               PARM2=&PARM2,                 X                 @D35ZE86*10150000
               PARM3=&PARM3                  X                 @D35ZE86 10200000
         MEXIT                                                          10250000
.*                                                                      10300000
.*       TEST FOR NON-VTAM KEYWORDS SPECIFIED FOR AM=VTAM               10350000
.*                                                                      10400000
.VTMRPL  ANOP                                                           10450000
         AIF   ('&KEYLEN' EQ '').VTMA010                                10500000
         IKQERMAC 11,KEYLEN,VTAM        KEYLEN   IS A VSAM KEYWORD      10550000
.VTMA010 ANOP                                                           10600000
         AIF   ('&MSGAREA' EQ '').VTMA020                               10650000
         IKQERMAC 11,MSGAREA,VTAM       MSGAREA  IS A VSAM KEYWORD      10700000
.VTMA020 ANOP                                                           10750000
         AIF   ('&MSGLEN' EQ '').VTMA030                                10800000
         IKQERMAC 11,MSGLEN,VTAM        MSGLEN   IS A VSAM KEYWORD      10850000
.VTMA030 ANOP                                                           10900000
         AIF   ('&NXTRPL' EQ '').VTMA040                                10950000
         IKQERMAC 11,NXTRPL,VTAM        NXTRPL   IS A VSAM KEYWORD      11000000
.VTMA040 ANOP                                                           11050000
         AIF   ('&TRANSID' EQ '').VTMA050                               11100000
         IKQERMAC 11,TRANSID,VTAM       TRANSID  IS A VSAM KEYWORD      11150000
.VTMA050 ANOP                                                           11200000
.*                                                                      11250000
.*       TEST FOR OS/VS EXCLUSIVE VTAM KEYWORDS                         11300000
.*                                                                      11350000
         AIF   ('&ARG' EQ '').VTMB010                                   11400000
         IKQERMAC 18,ARG,DOS/VS         ARG      ONLY VALID IN OS/VS    11450000
.VTMB010 ANOP                                                           11500000
.*                                                                      11550000
.*       FETCH THE MACRO TO COMPLETE VALIDITY CHECKING THE VTAM RPL     11600000
.*                                                                      11650000
         ISTRPL1 ,                INT  ACB  RPL  NIB  EXLST    @D35ZE86*11700000
               AAREA=&AAREA,                 X                         *11750000
               AAREALN=&AAREALN,             X                         *11800000
               ACB=&ACB,                     X                         *11850000
               AM=&AM,             X                                   *11900000
               AREA=&AREA,                   X                         *11950000
               AREALEN=&AREALEN,             X                         *12000000
               ARECLEN=&ARECLEN,             X                         *12050000
               BRACKET=&BRACKET,             X                         *12100000
               BRANCH=&BRANCH,               X                         *12150000
               CHAIN=&CHAIN,                 X                         *12200000
               CHNGDIR=&CHNGDIR,             X                         *12250000
               CODESEL=&CODESEL,             X                 @D32DCAP*12300000
               CONTROL=&CONTROL,             X                         *12350000
               ECB=&ECB,                     X                         *12400000
               EXIT=&EXIT,                   X                         *12450000
               IBSQAC=&IBSQAC,               X                         *12500000
               IBSQVAL=&IBSQVAL,             X                         *12550000
               NAME=&NAME,                   X                         *12600000
               NIB=&NIB,                     X                         *12650000
               OBSQAC=&OBSQAC,               X                         *12700000
               OBSQVAL=&OBSQVAL,             X                         *12750000
               OPTCD=&OPTCD,                 X                         *12800000
               POST=&POST,                   X                         *12850000
               RECLEN=&RECLEN,               X                         *12900000
               RESPOND=&RESPOND,             X                         *12950000
               RTYPE=&RTYPE,                 X                         *13000000
               SEQNO=&SEQNO,                 X                         *13050000
               SIGDATA=&SIGDATA,             X                 @D32DCAP*13100000
               SSENSEO=&SSENSEO,             X                         *13150000
               SSENSMO=&SSENSMO,             X                         *13200000
               STYPE=&STYPE,                 X                         *13250000
               USENSEO=&USENSEO,             X                         *13300000
               PARMS=&PARMS,                 X                 @D35ZE86*13350000
               PARM2=&PARM2,                 X                 @D35ZE86*13400000
               PARM3=&PARM3                  X                 @D35ZE86 13450000
         MEND                                                           13500000
