         MACRO                                                          00050000
&NAME    RUNMODE                                                        00100000
.*                                                                      00150000
*********************************************************************** 00200000
*                                                                       00250000
.*       IBM VSE / ADVANCED FUNCTIONS                          @D31UDGN 00300000
*        SUPERVISOR - RUNMODE - 5686-007-06-C440               @D31UDGN 00350000
.*                                                                      00400000
         AGO   .CPRIGHT                                                 00450000
.*                                                                      00500000
*        THIS MACRO IS "RESTRICTED MATERIALS OF IBM"           @D31UDGN 00550000
*        5686-007 (C) COPYRIGHT IBM CORP. 1979, 1989           @D31UDGN 00600000
*        ALL RIGHTS RESERVED                                   @D31UDGN 00650000
*        LICENSED MATERIALS - PROGRAM PROPERTY OF IBM          @D31UDGN 00700000
.*       SEE COPYRIGHT INSTRUCTIONS, G120-2083                 @D31UDGN 00750000
.*                                                                      00800000
.CPRIGHT ANOP                                                           00850000
.*                                                                      00900000
*                                                                       00950000
*********************************************************************** 01000000
.*                                                                      01050000
&NAME    SR    1,1                  CLEAR PARAMETER REGISTER            01100000
         SVC   66                   TEST MODE OF PROGRAM                01150000
         MEND                                                           01200000
