       MACRO                                                            00050000
&NAME  SAVE  &REGS                                                      00100000
       LCLA  &R1,&R2                                                    00150000
       LCLA  &KAREGS                                                    00200000
.* IBM  DISK OPERATING SYSTEM                                           00250000
* SUPERVISOR - SAVE - 5686-007-06 - C44                                 00300000
       AGO   .ZZZ                                              @D31UDMZ 00350000
*      THIS MACRO IS "RESTRICTED MATERIALS OF IBM"             @D31UDMZ 00400000
*      5686-007 (C) COPYRIGHT IBM CORP. 1977, 1989             @D31UDMZ 00450000
*      ALL RIGHTS RESERVED                                     @D31UDMZ 00500000
*      LICENSED MATERIALS-PROPERTY OF IBM                      @D31UDMZ 00550000
.*     SEE COPYRIGHT INSTRUCTIONS, G120-2083                   @D31UDMZ 00600000
.ZZZ   ANOP                                                    @D31UDMZ 00650000
       AIF   (T'&REGS(1) EQ 'N').E                                      00700000
       MNOTE 1,'FIRST REGISTER NOT A SELF-DEFINING VALUE. 14 ASSUMED.'  00750000
       AGO   .F                                                         00800000
.E     ANOP                                                             00850000
&KAREGS  SETA  K'&REGS                                                  00900000
       AIF   ('&REGS'(1,1) EQ '(' AND '&REGS'(&KAREGS,1) EQ ')').C      00950000
         MNOTE 0,'OPERAND NOT ENCLOSED IN PARENTHESES - IN ERROR IF    *01000000
                MORE THAN ONE OPERAND'                                  01050000
&R1    SETA  &REGS                                                      01100000
       AGO   .D                                                         01150000
.C     ANOP                                                             01200000
&R1    SETA  &REGS(1)                                                   01250000
.D     AIF   (&R1 NE 13 AND &R1 LE 15).A                                01300000
     MNOTE 3,'1ST REG MUST NOT BE 13 OR GREATER THAN 15. 14 ASSUMED.'   01350000
.F     ANOP                                                             01400000
&R1    SETA  14                                                         01450000
.A     AIF   (N'&REGS EQ 1).ST                                          01500000
       AIF   (T'&REGS(2) EQ 'N').H                                      01550000
    MNOTE 1,'2ND REGISTER NOT A SELF-DEFINING VALUE.12 ASSUMED.'    3-8 01600000
         AGO   .G                                                       01650000
.H       ANOP                                                           01700000
&R2      SETA  &REGS(2)                                                 01750000
         AIF   (&R1 GE 14 AND (&R2 GE &R1 AND &R2 LE 15 OR &R2 LE 12)  -01800000
               OR &R1 LE &R2 AND &R2 LE 12).B                           01850000
     MNOTE 3,'IMPROPER RANGE OF REGISTERS. 2ND REG = 12 ASSUMED.'       01900000
.G       ANOP                                                           01950000
&R2    SETA  12                                                         02000000
.B     ANOP                                                             02050000
&NAME    STM   &R1,&R2,12+4*(&R1+2-(&R1+2)/16*16)(13)                   02100000
       MEXIT                                                            02150000
.ST    ANOP                                                             02200000
&NAME    ST        &R1,12+4*(&R1+2-(&R1+2)/16*16)(13)                   02250000
       MEND                                                             02300000
