*%/*                                                                    00050052
         MACRO                                                          00100052
&NAME    SDUMP &HDR=,&HDRAD=,&DCB=,&ASID=,&ASIDLST=,&ECB=,&SDATA=,     X00150052
               &STORAGE=,&LIST=,&SUMLIST=,&BUFFER=,&QUIESCE=,&BRANCH=, X00200052
               &LISTA=,&TYPE=,&SUMLSTA=,&SUSPEND=,&SUBPLST=,&KEYLIST=, X00250052
               &MF=,&SRB=,                                         @L4CX00300052
               &ID=,&IDAD=,&SYMREC=,&PSWREGS=,&PLISTVER=           @T1C 00350052
.********************************************************************** 00400052
.*   MACRO NAME = SDUMP                                               * 00450052
.*                                                                    * 00500052
.*   DESCRIPTIVE NAME = SDUMP EXECUTABLE MACRO                        * 00550052
.*                                                                    * 00600052
.*   COPYRIGHT =                                                      * 00650052
.*               LICENSED MATERIALS - PROPERTY OF IBM                 * 00700052
.*               THIS MACRO IS "RESTRICTED MATERIALS OF IBM"          * 00750052
.*               5695-047 (C) COPYRIGHT IBM CORP 1980, 1990           * 00800052
.*               SEE COPYRIGHT INSTRUCTIONS                           * 00850052
.*                                                                    * 00900052
.*   STATUS = HBB4420                                                 * 00950052
.*                                                                    * 01000052
.*   FUNCTION = PROVIDES THE INTERFACE BETWEEN THE CALLER AND SVC     * 01050052
.*              DUMP.  LIST AND EXECUTE FORMS EXIST TO GENERATE       * 01100052
.*              THE SDUMP PARAMETER LIST AND PROPER LINKAGE TO THE    * 01150052
.*              SVC DUMP SERVICE.                                     * 01200052
.*                                                                    * 01250052
.*   NOTES = THE PARAMETER LIST GENERATED BY THE STANDARD AND LIST    * 01300052
.*           FORMS OF THIS MACRO IS AT LEAST 40 BYTES IN LENGTH.      * 01350052
.*           IF ANY OF THE NEW JBB1226 PARAMETERS ARE SPECIFIED, THE  * 01400052
.*           PARAMETER LIST LENGTH IS 48 BYTES.                       * 01450052
.*           IF ANY OF THE NEW HBB2102 PARAMETERS ARE SPECIFIED,      * 01500052
.*           THE PARAMETER LIST LENGTH IS 68 BYTES.                   * 01550052
.*                                                                    * 01600052
.*           IF MDUMP OPTIONS ARE SPECIFIED, THE PARAMETER LIST       * 01650052
.*             IS 128 BYTES.                                          * 01700052
.*           IF SDUMPX IS INVOKED, THE PARAMETER LIST IS 112 BYTES.   * 01750052
.*              (OR 128 IF MDUMP OPTIONS ARE SPECIFIED).              * 01800052
.*                                                                    * 01850052
.*   CHANGE ACTIVITY = FIX PROBLEM WITH ECB OPTION 6/22/79    @ZMB0025* 01900052
.*                     OS/VS2 JBB1226:                        @G383P1U* 01950052
.*                     1. SUPPORT FOR NEW KEYWORDS:                   * 02000052
.*                        LISTA,SUMLSTA,TYPE=XMEM             @G383P1U* 02050052
.*                     2. SUPPORT FOR NEW KEYWORD                     * 02100052
.*                        SUSPEND= YES OR NO                          * 02150052
.*                        SUPPORT FOR SDUMP EXITS             @G386P31* 02200052
.*                     3. SUPPORT FOR NEW KEYWORD: TYPE=XMEME @G38AP31* 02250052
.*                     APAR OZ51194 - MF=(E,(1)) ON EXECUTE   @ZA51194* 02300052
.*                        FORM WITH NO OTHER PARAMETERS       @ZA51194* 02350052
.*                        GENERATES AN OR IMMEDIATE.          @ZA51194* 02400052
.*                     OS/VS2 JBB1326:                            @L1A* 02450052
.*                     @L1= RAS JBB1326 810130 PD31:PAGE PROTECT  @L1A* 02500052
.*                     OS/VS2 HBB2102:                        @G860P31* 02550052
.*                     1. SUPPORT ALLNUC, SUBPLST, KEYLIST            * 02600052
.*                     2. ADD RESERVED FIELDS FOR SLIP AND SYSMDUMP   * 02650052
.*                     3. ADD BLOCK COMMENTS TO AID DEBUGGING         * 02700052
.*                     4. SUPPORT SPLEVEL                     @G860P1X* 02750052
.*                     5. ADD TYPE=NOLOCAL PARAMETER TO PREVENT       * 02800052
.*                        SDUMP FROM OBTAINING A LOCAL LOCK.  @ZMC2707* 02850052
.*  FLAG  REASON  RELEASE   DATA  ORIGIN                          @L2A* 02900052
.*  $L2=  RASENH  JBB2220  841119  PD2F: SUPPORT TYPE=FAILRC      @L2A* 02950052
.*  $L3=    AR    HBB3310  850920  PDXB: AR                           * 03000052
.*  $L4=  RTMRAS  HBB3310  860728  PDA8: SLIP SYNCHRONOUS SDV DUMP    * 03050052
.*  $P1= PC40145  HBB3310  860829  PD2F: CORRECT SPELLING IN MESG2E   * 03100052
.*  $P2= PC40810  HBB3310  870312  PDA8: SRB KEYWORD PROCESSING       * 03150052
.*  $T1=  OY21535 JBB2220  881101  PDXB: MDUMP SUPPORT                * 03200052
.*  $T2=  OY21535 HBB3310  881101  PDXB: MDUMP SUPPORT                * 03250052
.*        D52GHTN                      : VSE/ESA DATASPACE SUPPORT    * 03275052
.*                                                                    * 03300052
.*  OY23383 - WHEN DBCS OPTION IS SPECIFIED, COLUMNS 71 AND   @YA23383* 03350052
.*            72 ARE RECOGNIZED AS EXTENDED CONCATINATION     @YA23383* 03400052
.*            IF THEY CONTAIN LIKE CHARACTERS. CHANGING       @YA23383* 03450052
.*            "XX" IN COLS 71 AND 72 TO "XC".                 @YA23383* 03500052
.*                                                                    * 03550052
.*  $L5=DATA CAPT HBB4420  900000  PDHT: RAPID DATA CAPTURE           * 03600052
.*                                                                    * 03650052
.********************************************************************** 03700052
.*                                                                      03750052
.*       DEFINE SET SYMBOLS                                             03800052
.*                                                                      03850052
         GBLC  &SYSSPLV           SYSTEM/MACRO LIBRARY LEVEL   @G860P1X 03900052
         GBLB  &SDSE3LT      SET IF JBB1226  LIST FORM MACRO  @G383P1U  03950052
         GBLB  &SDSE3EX     SET IF JBB1226 EXECUTE FORM MACRO @G383P1U  04000052
         GBLB  &SDLISTF    LIST FORM WAS PREVIOUSLY SPECIFIED @G383P1U  04050052
         GBLB  &SDSP21L       SET IF HBB2102 LIST FORM MACRO  @G860P31  04100052
         GBLB  &SDSP21E     SET IF HBB2102 EXECUTE FORM MACRO @G860P31  04150052
         GBLC  &SDPLVER     SET ACCORDING TO HIGHEST PLISTVER     @T1A  04200052
         LCLA  &SDFLAG0           SDFLAG0 FIELD OF PARAMETER LIST       04250052
         LCLA  &SDFLAG1           SDFLAG1 FIELD OF PARAMETER LIST       04300052
         LCLA  &SDFLAG2           SDFLAG2 PARAMETER LIST FIELD @G383P1U 04350052
         LCLA  &SDATAF1,&SDATAF2  SDATA FIELD OF PARAMETER LIST         04400052
         LCLA  &SDATAF3           SDATA EXIT FIELDS PARM LIST  @G383P1U 04450052
         LCLA  &SDAT3             SDUSDAT3 FIELD OF PARM LIST      @T1A 04500052
         LCLA  &SDCNTL1           CONTROL FLAGS FOR IDENTIFYING NEW     04550052
.*                                RELEASES AND EXPANDED PARAMETER LIST  04600052
.*                                LENGTHS                      @G860P31 04650052
         LCLA  &SDTYPF1           TYPE FIELD OF PARAMETER LIST @G383P1U 04700052
         LCLA  &CTR1,&CTR2        COUNTERS FOR LOOP CONTROL, INDEX      04750052
         LCLA  &HDRCTR            NUMBER OF PAIRED APOSTROPHES          04800052
         LCLA  &IDCTR             NUMBER OF PAIRED APOSTROPHES     @T1A 04850052
         LCLA  &DISP              DISPLACEMENT FOR STORING ADDRESSES    04900052
         LCLA  &DISP1             DISPLACEMENT FOR STOR LIST@G860P31    04950052
         LCLA  &DISP2             DISPLACEMENT FOR HDR DATA    @G860P31 05000052
         LCLA  &STRCNT            COUNT OF STOR ADDRESSES      @G860P31 05050052
         LCLC  &GNAME             SYMBOLIC NAME-BRANCH AROUND CONSTANTS 05100052
         LCLC  &TEMP              TEMPORARY VARIABLE               @T1A 05150052
         LCLB  &SDDCB             SET IF DCB ADDRESS IS SPECIFIED       05200052
         LCLB  &SDBUFF            SET IF BUFFER IS TO BE DUMPED         05250052
         LCLB  &SDSTOR            SET IF STORAGE OR LIST IS SPECIFIED   05300052
         LCLB  &SDHDR             SET IF HDR OR HDRAD IS SPECIFIED      05350052
         LCLB  &SDECB             SET IF AN ECB ADDRESS IS SUPPLIED     05400052
         LCLB  &SDSRB            SET IF AN SRB ADDRESS IS SUPPLIED @L4A 05450052
         LCLB  &SDASID            SET IF AN ASID IS SPECIFIED           05500052
         LCLB  &SDASIDL           SET IF AN ASIDLIST IS SPECIFIED       05550052
.*                                                             @G33VPHD 05600052
         LCLB  &SDQUIET           SET IF SYSTEM IS TO BE QUIESCED       05650052
         LCLB  &SDBRNCH           SET IF INTERFACE IS BRANCH ENTRY      05700052
         LCLB  &DUMPTYP           ALWAYS SET FOR SVC DUMP               05750052
         LCLB  &SDALPSA           SET IF ALL PSA IN SYSTEM TO BE DUMPED 05800052
         LCLB  &SDPSA             SET IF CURRENT PSA IS TO BE DUMPED    05850052
         LCLB  &SDNUC             SET IF NUCLEUS IS TO BE DUMPED        05900052
         LCLB  &SDSQA             SET IF SQA IS TO BE DUMPED            05950052
         LCLB  &SDLSQA            SET IF LSQA IS TO BE DUMPED           06000052
         LCLB  &SDRGN             SET IF VIRTUAL MEMORY IS TO BE DUMPED 06050052
         LCLB  &SDLPA             SET IF ACTIVE LPA MOD FOR MEMORY REQ  06100052
         LCLB  &SDTRT             SET IF GTF INCORE TRACE BUFFERS  REQ  06150052
         LCLB  &SDCSA             SET IF CSA SUBPOOLS ARE TO BE DUMPED  06200052
         LCLB  &SDSWA             SET IF SWA FOR MEMORY TO BE DUMPED    06250052
.*                                                                      06300052
         LCLB  &SDSUMLT           SET IF SUMLIST SPECIFIED     @G33VPHD 06350052
         LCLB  &SDSMDMP           SET IF SUMDUMP SPECIFIED     @G33VPHD 06400052
         LCLB  &SDNSMDP           SET IF NO SUMDUMP SPECIFIED  @G33VPHD 06450052
         LCLB  &SDNSQA            SET IF NO SQA SPECIFIED      @G33VPHD 06500052
         LCLB  &SDNAPSA           SET IF NOALLPSA IS SPECIFIED @G33VPHD 06550052
         LCLB  &SDNEW             SET IF ENHANCED SVC DUMP     @G33VPHD 06600052
         LCLB  &SDSE3PM         SET IF JBB1226 PARMS SPECIFIED @G383P1U 06650052
         LCLB  &SDGRSQ            SET IF SDATA=GRSQ SPECIFIED  @G383P1U 06700052
.********************************************************************** 06750052
.* FOR EACH NEW SDUMP EXIT, ADD A NEW VARIABLE DEFINED SIMILAR TO       06800052
.* SDGRSQ.                                                     @G386P31 06850052
.********************************************************************** 06900052
         LCLB  &SDLISTA           SET IF LISTA PARM SPECIFIED  @G383P1U 06950052
         LCLB  &SDSMLTA           SET IF SUMLSTA SPECIFIED     @G383P1U 07000052
         LCLB  &SDSPEND           SET IF SUSPEND=YES SPECIFIED @G386P31 07050052
         LCLB  &SDTYPXM           SET IF TYPE=XMEM SPECIFIED   @ZMB0025 07100052
         LCLB  &SDTPXME           SET IF TYPE=XMEME SPECIFIED  @G38AP31 07150052
         LCLB  &SDALLNC           SET IF ALLNUC SPECIFIED      @G860P31 07200052
         LCLB  &SDSPLST           SET IF SUBPLST SPECIFIED     @G860P31 07250052
         LCLB  &SDKYLST           SET IF KEYLIST SPECIFIED     @G860P31 07300052
         LCLB  &SDSP21P           SET IF HBB2102 PARM LIST     @G860P31 07350052
         LCLB  &SDVRSNB           SET IF VERSION NUMBER IN LIST    @T1A 07400052
         LCLB  &SDTYPNL          SET IF TYPE=NOLOCAL SPECIFIED @ZMC2707 07450052
         LCLB  &SDTYPRC           SET IF TYPE=FAILRC SPECIFIED     @L2A 07500052
.* FLAGS FOR MDUMP OPTIONS                                              07550052
         LCLC  &PLVER             PLISTVER                         @T1A 07600052
         LCLB  &SDPREG            SET IF PSWREG SPECIFIED          @T1A 07650052
         LCLB  &SDSYMR            SET IF SYMREC SPECIFIED          @T1A 07700052
         LCLB  &SDID              SET IF ID OR IDAD SPECIFIED      @T1A 07750052
         LCLB  &SDIDAD            SET IF IDAD SPECIFIED            @T1A 07800052
         LCLB  &SDDEFS            SET IF DEFAULTS/DEFS SPECIFIED   @T1A 07850052
         LCLB  &SDNODEF           SET IF NODEFAULTS/NODEFS         @T1A 07900052
         LCLB  &SDIO              SET IF IO SPECIFIED              @T1A 07950052
.*                                                                      08000052
.********************************************************************** 08050052
.* DETERMINE WHAT THE SYSTEM/MACRO LIBRARY IS.  IF IT IS HBB3310,       08100052
.* ISSUE SDUMPX MACRO. IF IT IS HBB2102,                                08150052
.* THEN CONTINUE PROCESSING SDUMP MACRO.  IF IT IS NOT HBB2102, THEN    08200052
.* ISSUE SDUMP7 MACRO, AFTER REMOVING THE SUBPLST AND KEYLIST           08250052
.* PARAMETERS.  NOTE: THE ALLNUC OPTION ON THE SDATA KEYWORD WILL       08300052
.* NOT BE REMOVED.                                             @G860P1X 08350052
.********************************************************************** 08400052
.*                                                                      08450052
         GBLC  &SYSASCE           ASC ENVIRONMENT                  @L3A 08500052
         SYSSTATE TEST            WHAT IS ASC ENVIRONMENT          @L3A 08550052
         AIF ('&SYSASCE' EQ 'P').INVKSDP PRIMARY, PROCESS NORMALLY @L3A 08600052
         MNOTE 0,'*** SDUMPX MACRO SUBSTITUTED FOR SDUMP MACRO BECAUSE X08650052
               ASCENV=AR/ANY SPECIFIED ON PREVIOUSLY ISSUED SYSSTATE MAX08700052
               CRO'                                                @L3A 08750052
&NAME    SDUMPX HDR=&HDR,HDRAD=&HDRAD,DCB=&DCB,ASID=&ASID,             X08800052
               ASIDLST=&ASIDLST,ECB=&ECB,SDATA=&SDATA,                 X08850052
               STORAGE=&STORAGE,LIST=&LIST,SUMLIST=&SUMLIST,           X08900052
               BUFFER=&BUFFER,QUIESCE=&QUIESCE,BRANCH=&BRANCH,         X08950052
               LISTA=&LISTA,TYPE=&TYPE,SUMLSTA=&SUMLSTA,               X09000052
               SUSPEND=&SUSPEND,SUBPLST=&SUBPLST,KEYLIST=&KEYLIST,     X09050052
               ID=&ID,IDAD=&IDAD,SYMREC=&SYMREC,PSWREGS=&PSWREGS,      X09100052
               MF=&MF,SRB=&SRB,PLISTVER=&PLISTVER                  @T2C 09150052
         MEXIT                                                     @L3A 09200052
.INVKSDP ANOP                                                      @L3A 09250052
         SPLEVEL TEST              WHAT IS THE SYSTEM LEVEL?   @G860P1X 09300052
         AIF   ('&SYSSPLV' NE '1').INVKSP2 HBB2102, GO PROCESS @G860P1X 09350052
.*                                           NORMALLY          @G860P1X 09400052
.INVKSP1 ANOP                      INVOKE HBB2102 SDUMP7 MACRO @G860P1X 09450052
&NAME    SDUMP7 HDR=&HDR,HDRAD=&HDRAD,DCB=&DCB,ASID=&ASID,     @G860P1XC09500052
               ASIDLST=&ASIDLST,ECB=&ECB,SDATA=&SDATA,         @G860P1XC09550052
               STORAGE=&STORAGE,LIST=&LIST,SUMLIST=&SUMLIST,   @G860P1XC09600052
               BUFFER=&BUFFER,QUIESCE=&QUIESCE,BRANCH=&BRANCH, @G860P1XC09650052
               LISTA=&LISTA,TYPE=&TYPE,SUMLSTA=&SUMLSTA,       @G860P1XC09700052
               SUSPEND=&SUSPEND,MF=&MF                         @G860P1X 09750052
         MEXIT                                                 @G860P1X 09800052
.*                                                                      09850052
.********************************************************************** 09900052
.* IF ANY POSITIONAL PARAMETERS WERE SPECIFIED, THE MACRO IS            09950052
.* SPECIFIED INCORRECTLY AND IS PROBABLY MISSING A SET OF               10000052
.* PARENTHESIS.                                                @G860P1X 10050052
.********************************************************************** 10100052
.*                                                                      10150052
.INVKSP2 ANOP                                                  @G860P1X 10200052
         AIF  ('&SYSLIST(1)' NE '').MESG1A                     @G860P1X 10250052
.*                                                                      10300052
.********************************************************************** 10350052
.*                                                                      10400052
.*         SYNTAX CHECK FOR MUTUALLY EXCLUSIVE OPTIONS                  10450052
.*                                                             @G860P31 10500052
.********************************************************************** 10550052
.*                                                                      10600052
         AIF   ('&HDR' NE '' AND '&HDRAD' NE '').MESG2A     MUTUALLY    10650052
         AIF   ('&ID' NE '' AND '&IDAD' NE '').MESG2F              @T1A 10700052
         AIF   ('&STORAGE' NE '' AND '&LIST' NE '').MESG2B   EXCLUSIVE  10750052
.*       TEST STORAGE AND LISTA - MUTUALLY EXCLUSIVE           @G383P1U 10800052
         AIF   ('&STORAGE' NE '' AND '&LISTA' NE '').MESG2C    @G383P1U 10850052
.*       TEST LIST AND LISTA - MUTUALLY EXCLUSIVE              @G383P1U 10900052
         AIF   ('&LIST' NE '' AND '&LISTA' NE '').MESG2D       @G383P1U 10950052
.*       TEST SUMLIST AND SUMLSTA - MUTUALLY EXCLUSIVE         @G383P1U 11000052
         AIF   ('&SUMLIST' NE '' AND '&SUMLSTA' NE '').MESG2E  @G383P1U 11050052
.*       TEST ASID AND ASIDLST - MUTUALLY EXCLUSIVE            @G386P31 11100052
         AIF   ('&ASID' NE '' AND '&ASIDLST' NE '').MESG10     @G383P1U 11150052
.*                                                                      11200052
.********************************************************************** 11250052
.*                                                                      11300052
.*    PARSE THE HDR PARAMETER FOR INVALID LENGTH AFTER ACCOUNTING       11350052
.*    FOR STARTING, ENDING, AND PAIRED APOSTROPHES.                     11400052
.*                                                             @G860P31 11450052
.********************************************************************** 11500052
.*                                                                      11550052
         AIF   ('&HDR' EQ '').SD3I          HDR SPECIFIED          @T1C 11600052
         AIF   ('&HDR'(1,1) NE '''').MESG9  IS FIRST CHAR APOSTROPHE    11650052
&CTR1    SETA  K'&HDR-1                     LENGTH OF USER DATA +1      11700052
         AIF   (&CTR1 LT 2).MESG9A          INVALID HDR SPECIFICATION   11750052
.*                                                            @ZMC0399  11800052
&HDRCTR  SETA  0                            NUMBER OF PAIRED APOSTROHES 11850052
&CTR2    SETA  2                            INDEX FIRST CHAR-USER DATA  11900052
.SDLOOP  ANOP                                                           11950052
         AIF   (&CTR2 GE &CTR1).SD2              END OF SCAN            12000052
         AIF   ('&HDR'(&CTR2,2) EQ '''''').SD1   PAIRED APOSTROPHES     12050052
&CTR2    SETA  &CTR2+1                           UPDATE INDEX BY 1      12100052
         AGO   .SDLOOP                           CONTINUE LOOP          12150052
.SD1     ANOP                                                           12200052
&HDRCTR  SETA  &HDRCTR+1                    ONE MORE PAIRED APOSTROPHES 12250052
&CTR2    SETA  &CTR2+2                      UPDATE INDEX BY 2           12300052
         AGO   .SDLOOP                      CONTINUE LOOP               12350052
.SD2     ANOP                                                           12400052
&CTR1    SETA  K'&HDR-2-&HDRCTR             LENGTH OF USER DATA         12450052
         AIF   (&CTR1 GT 100).MESG8         USER DATA TOO LONG          12500052
.********************************************************************** 12550052
.*                                                                      12600052
.*    PARSE THE ID PARAMETER FOR INVALID LENGTH AFTER ACCOUNTING        12650052
.*    FOR STARTING, ENDING, AND PAIRED APOSTROPHES.                     12700052
.*                                                                 @T1A 12750052
.********************************************************************** 12800052
.*                                                                      12850052
.SD3I    AIF   ('&ID' EQ '').SD3            ID SPECIFIED           @T1A 12900052
         AIF   ('&ID'(1,1) NE '''').MESG9I  FIRST CHAR APOSTROPHE  @T1A 12950052
&CTR1    SETA  K'&ID-1                      LENGTH+1               @T1A 13000052
         AIF   (&CTR1 LT 2).MESG9AI         INVALID ID SPECIFICATION   *13050052
                                                                   @T1A 13100052
&IDCTR   SETA  0                            PAIRED APOSTROPHES     @T1A 13150052
&CTR2    SETA  2                            INDEX FIRST CHAR       @T1P 13200052
.SDLOOPI ANOP                                                      @T1A 13250052
         AIF   (&CTR2 GE &CTR1).SD2I             END OF SCAN       @T1A 13300052
         AIF   ('&ID'(&CTR2,2) EQ '''''').SD1I   PAIRED            @T1A 13350052
&CTR2    SETA  &CTR2+1                           UPDATE INDEX BY 1 @T1A 13400052
         AGO   .SDLOOPI                          CONTINUE LOOP     @T1A 13450052
.SD1I    ANOP                                                      @T1A 13500052
&IDCTR   SETA  &IDCTR+1                     ONE MORE               @T1A 13550052
&CTR2    SETA  &CTR2+2                      UPDATE INDEX BY 2      @T1P 13600052
         AGO   .SDLOOPI                     CONTINUE LOOP          @T1A 13650052
.SD2I    ANOP                                                      @T1A 13700052
&CTR1    SETA  K'&ID-2-&IDCTR               LENGTH OF USER DATA    @T1A 13750052
         AIF   (&CTR1 GT 50).MESG8I         USER DATA TOO LONG     @T1A 13800052
.*                                                                      13850052
.********************************************************************** 13900052
.*                                                                      13950052
.*    CHECK FOR INVALID PARAMETERS SPECIFIED WITH MF=L                  14000052
.*                                                             @G860P31 14050052
.********************************************************************** 14100052
.*                                                                      14150052
.SD3     AIF   ('&MF' NE 'L').SD5           IS MF STANDARD OR EXECUTE   14200052
         AIF   ('&ASID' NE '').MESG5A       ASID INVALID W/MF=L         14250052
         AIF   ('&ECB' NE '').MESG5B        ECB INVALID W/MF=L          14300052
         AIF   ('&SRB' NE '').MESG5F        SRB INVALID W/MF=L     @L4A 14350052
         AIF   ('&BRANCH' NE '').MESG5C     BRANCH INVALID W/MF=L       14400052
         AIF   ('&ASIDLST' NE '').MESG5D   ASID INV W/MF=L     @G33VPHD 14450052
.*                                                                      14500052
.********************************************************************** 14550052
.*                                                                      14600052
.*  CHECK FOR VALID OPERANDS (YES OR NO) ON BUFFER, BRANCH, AND QUIESCE 14650052
.*                                                             @G860P31 14700052
.********************************************************************** 14750052
.*                                                                      14800052
.SD5     AIF   ('&BUFFER' EQ '').SD9        IS BUFFER SPECIFIED         14850052
.*                                                             @G33VPHD 14900052
         AIF   ('&BUFFER' NE 'YES' AND '&BUFFER' NE 'NO').MESG4B        14950052
.*                                                             @G33VPHD 15000052
.SD9     AIF   ('&BRANCH' EQ '').SD11       IS BRANCH SPECIFIED         15050052
         AIF   ('&BRANCH' NE 'YES' AND '&BRANCH' NE 'NO').MESG4C        15100052
.SD11    AIF   ('&QUIESCE' EQ '').SD13      IS QUIESCE SPECIFIED        15150052
         AIF   ('&QUIESCE' NE 'YES' AND '&QUIESCE' NE 'NO').MESG4D      15200052
.*                                                                      15250052
.********************************************************************** 15300052
.*                                                                      15350052
.*  CHECK FOR AN EVEN NUMBER OF STORAGE RANGES.                         15400052
.*                                                             @G860P31 15450052
.********************************************************************** 15500052
.*                                                                      15550052
.SD13    AIF   ('&STORAGE' EQ '').SD15      IS STORAGE SPECIFIED        15600052
&CTR1    SETA  N'&STORAGE/2                 NUMBER OF ADDRESS PAIRS     15650052
&CTR2    SETA  (N'&STORAGE-1)/2             NUMBER OF PAIRS MINUS 1     15700052
         AIF   (&CTR1 EQ &CTR2).MESG6       ODD NUMBER OF ADDRESSES     15750052
.SD15    ANOP                                                           15800052
.*                                                                      15850052
.********************************************************************** 15900052
.*                                                                      15950052
.*       SDFLAG0 PROCESSING                                             16000052
.*                                                             @G860P31 16050052
.********************************************************************** 16100052
.*                                                                      16150052
&SDDCB   SETB  ('&DCB' NE '')                IF DCB SPECIFIED           16200052
&SDBUFF  SETB  ('&BUFFER' EQ 'YES')          IF BUFFER TO BE DUMPED     16250052
&SDSTOR  SETB  ('&STORAGE' NE '' OR '&LIST' NE '')    STORAGE ADDR LIST 16300052
&SDHDR   SETB  ('&HDR' NE '' OR '&HDRAD' NE '')       USER DATA         16350052
         AIF   ('&ECB' NE '' AND '&SRB' NE '').MESG13B SRB AND ECB ARE  16400052
.*             MUTUALLY EXCLUSIVE                                  @L4A 16450052
&SDECB   SETB  ('&ECB' NE '')                IF ECB SPECIFIED           16500052
&SDSRB   SETB  ('&SRB' NE '')                IF SRB SPECIFIED      @L4A 16550052
&SDASID  SETB  ('&ASID' NE '')               IF ASID SPECIFIED          16600052
&SDQUIET SETB  ('&QUIESCE' NE 'NO')          IF SYSTEM TO BE QUIESCED   16650052
.*             SDQUIET IS SET FOR QUIESCE=YES OR DEFAULTED TO YES       16700052
.*             THE DEFAULT ONLY APPLIES TO THE LIST AND STANDARD FORM,  16750052
.*             AND MUST BE COMPENSATED FOR ON THE EXECUTE FORM.         16800052
&SDBRNCH SETB  ('&BRANCH' EQ 'YES')          IF LINKAGE BY BRANCH ENTRY 16850052
&SDFLAG0 SETA  128*&SDDCB+64*&SDBUFF+32*&SDSTOR+16*&SDHDR+8*&SDECB+4*&SX16900052
               DASID+2*&SDQUIET+1*&SDBRNCH                              16950052
.*                                                                      17000052
.********************************************************************** 17050052
.*                                                                      17100052
.*       SDFLAG1 PROCESSING                                             17150052
.*                                                             @G860P31 17200052
.********************************************************************** 17250052
.*                                                                      17300052
&DUMPTYP SETB  1                  ALWAYS ON FOR SVC DUMP                17350052
&SDNEW   SETB  1                  ALWAYS SET TO 1 FOR NEW SDUMP MACRO   17400052
.*                                                             @G33VPHD 17450052
&SDASIDL SETB  ('&ASIDLST' NE '') IF ASIDLIST WAS SPECIFIED             17500052
.*                                                             @G33VPHD 17550052
&SDSUMLT SETB  ('&SUMLIST' NE '') IF SUMLIST WAS SPECIFIED              17600052
.*                                                             @G33VPHD 17650052
&SDFLAG1 SETA  128*&DUMPTYP+32*&SDNEW+16*&SDASIDL+8*&SDSUMLT            17700052
.*                                                                      17750052
.********************************************************************** 17800052
.*                                                                      17850052
.*       SDFLAG2 PROCESSING                                             17900052
.*                                                             @G860P31 17950052
.********************************************************************** 18000052
.*                                                                      18050052
&SDLISTA SETB  ('&LISTA' NE '')   SET IF LISTA IS SPECIFIED    @G383P1U 18100052
&SDSMLTA SETB  ('&SUMLSTA' NE '') SET IF SUMLSTA SPECIFED      @G383P1U 18150052
&SDFLAG2 SETA  128*&SDLISTA+64*&SDSMLTA                        @G383P1U 18200052
.*                                                                      18250052
.********************************************************************** 18300052
.*                                                                      18350052
.*       SDCNTL1 PROCESSING                                             18400052
.*                                                                 @T1A 18450052