*%/*                                                                    00050052
         MACRO                                                          00100052
&NAME    SDUMPX &HDR=,&HDRAD=,&DCB=,&ASID=,&ASIDLST=,&ECB=,&SDATA=,    X00150052
               &STORAGE=,&LIST=,&SUMLIST=,&BUFFER=,&QUIESCE=,&BRANCH=, X00200052
               &LISTA=,&TYPE=,&SUMLSTA=,&SUSPEND=,&SUBPLST=,&KEYLIST=, X00250052
               &MF=,&SRB=,&SUMLSTL=,&LISTD=,                       @L6CX00300052
               &ID=,&IDAD=,&SYMREC=,&PSWREGS=,&PLISTVER=           @T1P 00350052
.********************************************************************** 00400052
.*   MACRO NAME = SDUMPX                                              * 00450052
.*                                                                    * 00500052
.*   DESCRIPTIVE NAME = SDUMPX EXECUTABLE MACRO                       * 00550052
.*                                                                    * 00600052
.*   STATUS = HBB4420                                                 * 00650052
.*                                                                    * 00700052
.*   COPYRIGHT =                                                      * 00750052
.*               LICENSED MATERIALS - PROPERTY OF IBM                 * 00800052
.*               THIS MACRO IS "RESTRICTED MATERIALS OF IBM"          * 00850052
.*               5695-047 (C) COPYRIGHT IBM CORP 1980, 1990           * 00900052
.*               SEE COPYRIGHT INSTRUCTIONS                           * 00950052
.*                                                                    * 01000052
.*   FUNCTION = PROVIDES THE INTERFACE BETWEEN THE CALLER AND SVC     * 01050052
.*              DUMP.  LIST AND EXECUTE FORMS EXIST TO GENERATE       * 01100052
.*              THE SDUMPX PARAMETER LIST AND PROPER LINKAGE TO THE   * 01150052
.*              SVC DUMP SERVICE.                                     * 01200052
.*                                                                    * 01250052
.*   NOTES = THE PARAMETER LIST GENERATED BY THE STANDARD AND LIST    * 01300052
.*           FORMS OF THIS MACRO IS 112 BYTES IN LENGTH.              * 01350052
.*           IF MDUMP OPTIONS ARE SPECIFIED, THE PARAMETER LIST       * 01400052
.*             IS 128 BYTES.                                          * 01450052
.*                                                                    * 01500052
.*   CHANGE ACTIVITY = FIX PROBLEM WITH ECB OPTION 6/22/79    @ZMB0025* 01550052
.*                     OS/VS2 JBB1226:                        @G383P1U* 01600052
.*                     1. SUPPORT FOR NEW KEYWORDS:                   * 01650052
.*                        LISTA,SUMLSTA,TYPE=XMEM             @G383P1U* 01700052
.*                     2. SUPPORT FOR NEW KEYWORD                     * 01750052
.*                        SUSPEND= YES OR NO                          * 01800052
.*                        SUPPORT FOR SDUMP EXITS             @G386P31* 01850052
.*                     3. SUPPORT FOR NEW KEYWORD: TYPE=XMEME @G38AP31* 01900052
.*                     4. SUPPORT FOR NEW KEYWORD: SUMLSTL        @L5A* 01950052
.*                     APAR OZ51194 - MF=(E,(1)) ON EXECUTE   @ZA51194* 02000052
.*                        FORM WITH NO OTHER PARAMETERS       @ZA51194* 02050052
.*                        GENERATES AN OR IMMEDIATE.          @ZA51194* 02100052
.*                     OS/VS2 JBB1326:                            @L1A* 02150052
.*                     @L1= RAS JBB1326 810130 PD31:PAGE PROTECT  @L1A* 02200052
.*                     OS/VS2 HBB2102:                        @G860P31* 02250052
.*                     1. SUPPORT ALLNUC, SUBPLST, KEYLIST            * 02300052
.*                     2. ADD RESERVED FIELDS FOR SLIP AND SYSMDUMP   * 02350052
.*                     3. ADD BLOCK COMMENTS TO AID DEBUGGING         * 02400052
.*                     4. SUPPORT SPLEVEL                     @G860P1X* 02450052
.*                     5. ADD TYPE=NOLOCAL PARAMETER TO PREVENT       * 02500052
.*                        SDUMP FROM OBTAINING A LOCAL LOCK.  @ZMC2707* 02550052
.*  FLAG  REASON  RELEASE   DATA  ORIGIN                          @L2A* 02600052
.*  $L2=  RASENH  JBB2220  841119  PD2F: SUPPORT TYPE=FAILRC      @L2A* 02650052
.*  $L3=    AR    HBB3310  850901  PDXB: AR SUPPORT                   * 02700052
.*  $L4=  RTMRAS  HBB3310  860728  PDA8: SLIP SYNCHRONOUS SVC DUMP    * 02750052
.*  $P1= PC40145  HBB3310  860829  PD2F: CORRECT SPELLING IN MESG2E   * 02800052
.*  $P2= PC40810  HBB3310  870312  PDA8: SRB KEYWORD PROCESSING       * 02850052
.*  $T1= OY21535  JBB2220  890331  PDXB: MDUMP SUPPORT                * 02900052
.*  $T2= OY21535  HBB3310  890331  PDXB: MDUMP SUPPORT                * 02950052
.*  $T3= OY21535  HBB3310  890331  PDXB: MDUMP SUPPORT FOR SDUMPX     * 03000052
.*  $L5= DATASPAC HBB3310  861029  PDAY: SUMLSTL KEYWORD SUPPORT  @L5A* 03050052
.*  $L6= DATASPAC HBB3310  861029  PDQ6: LISTD   KEYWORD SUPPORT  @L6A* 03100052
.*  $L7= COUPLSDU HBB4410  870116  PDQ6: SDATA COUPLE                 * 03150052
.*  $L8= DATACAPT HBB4420  900226  PDHT: UPGRADED SYNTAX FOR ECB &    * 03200052
.*                                       SRB KEYWORDS             @L8A* 03250052
.*  $D1= DH30150  HBB4420  901024  PDHR: SRB CAPTURE DEFAULT          * 03300052
.*       D52GHTN                       : VSE/ESA DATASPACE SUPPORT    * 03325052
.*                                                                    * 03350052
.********************************************************************** 03400052
.*                                                                      03450052
.*       DEFINE SET SYMBOLS                                             03500052
.*                                                                      03550052
         GBLC  &SYSSPLV           SYSTEM/MACRO LIBRARY LEVEL   @G860P1X 03600052
         GBLC  &SDPLVER     SET ACCORDING TO HIGHEST PLISTVER     @T1P  03650052
         LCLA  &SDFLAG0           SDFLAG0 FIELD OF PARAMETER LIST       03700052
         LCLA  &SDFLAG1           SDFLAG1 FIELD OF PARAMETER LIST       03750052
         LCLA  &SDFLAG2           SDFLAG2 PARAMETER LIST FIELD @G383P1U 03800052
         LCLA  &SDATAF1,&SDATAF2  SDATA FIELD OF PARAMETER LIST         03850052
         LCLA  &SDATAF3           SDATA EXIT FIELDS PARM LIST  @G383P1U 03900052
         LCLA  &SDAT3             SDUSDAT3 FIELD OF PARM LIST      @T1P 03950052
         LCLA  &SDCNTL1           CONTROL FLAGS FOR IDENTIFYING NEW     04000052
.*                                RELEASES AND EXPANDED PARAMETER LIST  04050052
.*                                LENGTHS                      @G860P31 04100052
         LCLA  &SDTYPF1           TYPE FIELD OF PARAMETER LIST @G383P1U 04150052
         LCLA  &CTR1,&CTR2        COUNTERS FOR LOOP CONTROL, INDEX      04200052
         LCLA  &HDRCTR            NUMBER OF PAIRED APOSTROPHES          04250052
         LCLA  &IDCTR             NUMBER OF PAIRED APOSTROPHES     @T1P 04300052
         LCLA  &DISP              DISPLACEMENT FOR STORING ADDRESSES    04350052
         LCLA  &DISP1             DISPLACEMENT FOR STOR LIST@G860P31    04400052
         LCLA  &DISP2             DISPLACEMENT FOR HDR DATA    @G860P31 04450052
         LCLA  &STRCNT            COUNT OF STOR ADDRESSES      @G860P31 04500052
         LCLC  &GNAME             SYMBOLIC NAME-BRANCH AROUND CONSTANTS 04550052
         LCLC  &TEMP              TEMPORARY VARIABLE               @T1P 04600052
         LCLB  &SDDCB             SET IF DCB ADDRESS IS SPECIFIED       04650052
         LCLB  &SDBUFF            SET IF BUFFER IS TO BE DUMPED         04700052
         LCLB  &SDSTOR            SET IF STORAGE OR LIST IS SPECIFIED   04750052
         LCLB  &SDHDR             SET IF HDR OR HDRAD IS SPECIFIED      04800052
         LCLB  &SDECB             SET IF AN ECB ADDRESS IS SUPPLIED     04850052
         LCLB  &SDECBWR           SET IF THE ECB IS TO BE POSTED AFTER  04900052
.*                                THE WRITE PHASE HAS COMPLETED    @D1A 04950052
         LCLB  &SDSRB            SET IF AN SRB ADDRESS IS SUPPLIED @L4A 05000052
         LCLB  &SDSRBWR         SET IF THE SRB IS TO BE SCHEDULED AFTER 05050052
.*                                THE WRITE PHASE HAS COMPLETED    @D1A 05100052
         LCLB  &SDWRITE           SET IF THE ECB IS TO BE POSTED OR     05150052
.*                                THE SRB IS TO BE SCHEDULED AFTER      05200052
.*                                THE WRITE PHASE HAS COMPLETED    @D1A 05250052
         LCLB  &SDASID            SET IF AN ASID IS SPECIFIED           05300052
         LCLB  &SDASIDL           SET IF AN ASIDLIST IS SPECIFIED       05350052
.*                                                             @G33VPHD 05400052
         LCLB  &SDQUIET           SET IF SYSTEM IS TO BE QUIESCED       05450052
         LCLB  &SDBRNCH           SET IF INTERFACE IS BRANCH ENTRY      05500052
         LCLB  &DUMPTYP           ALWAYS SET FOR SVC DUMP               05550052
         LCLB  &SDALPSA           SET IF ALL PSA IN SYSTEM TO BE DUMPED 05600052
         LCLB  &SDPSA             SET IF CURRENT PSA IS TO BE DUMPED    05650052
         LCLB  &SDNUC             SET IF NUCLEUS IS TO BE DUMPED        05700052
         LCLB  &SDSQA             SET IF SQA IS TO BE DUMPED            05750052
         LCLB  &SDLSQA            SET IF LSQA IS TO BE DUMPED           05800052
         LCLB  &SDRGN             SET IF VIRTUAL MEMORY IS TO BE DUMPED 05850052
         LCLB  &SDLPA             SET IF ACTIVE LPA MOD FOR MEMORY REQ  05900052
         LCLB  &SDTRT             SET IF GTF INCORE TRACE BUFFERS  REQ  05950052
         LCLB  &SDCSA             SET IF CSA SUBPOOLS ARE TO BE DUMPED  06000052
         LCLB  &SDSWA             SET IF SWA FOR MEMORY TO BE DUMPED    06050052
.*                                                                      06100052
         LCLB  &SDSUMLT           SET IF SUMLIST SPECIFIED     @G33VPHD 06150052
         LCLB  &SDSMDMP           SET IF SUMDUMP SPECIFIED     @G33VPHD 06200052
         LCLB  &SDNSMDP           SET IF NO SUMDUMP SPECIFIED  @G33VPHD 06250052
         LCLB  &SDNSQA            SET IF NO SQA SPECIFIED      @G33VPHD 06300052
         LCLB  &SDNAPSA           SET IF NOALLPSA IS SPECIFIED @G33VPHD 06350052
         LCLB  &SDNEW             SET IF ENHANCED SVC DUMP     @G33VPHD 06400052
         LCLB  &SDSE3PM         SET IF JBB1226 PARMS SPECIFIED @G383P1U 06450052
         LCLB  &SDGRSQ            SET IF SDATA=GRSQ SPECIFIED  @G383P1U 06500052
         LCLB  &SDCOUPL           SET IF SDATA=COUPLE SPECIFIED    @L7A 06550052
.********************************************************************** 06600052
.* FOR EACH NEW SDUMP EXIT, ADD A NEW VARIABLE DEFINED SIMILAR TO       06650052
.* SDGRSQ.                                                     @G386P31 06700052
.********************************************************************** 06750052
         LCLB  &SDLISTA           SET IF LISTA PARM SPECIFIED  @G383P1U 06800052
         LCLB  &SDLISTD           SET IF LISTD PARM SPECIFIED      @L6A 06850052
         LCLB  &SDSMLTA           SET IF SUMLSTA SPECIFIED     @G383P1U 06900052
         LCLB  &SDSMLTL           SET IF SUMLSTL SPECIFIED         @L5A 06950052
         LCLB  &SDSPEND           SET IF SUSPEND=YES SPECIFIED @G386P31 07000052
         LCLB  &SDTYPXM           SET IF TYPE=XMEM SPECIFIED   @ZMB0025 07050052
         LCLB  &SDTPXME           SET IF TYPE=XMEME SPECIFIED  @G38AP31 07100052
         LCLB  &SDALLNC           SET IF ALLNUC SPECIFIED      @G860P31 07150052
         LCLB  &SDSPLST           SET IF SUBPLST SPECIFIED     @G860P31 07200052
         LCLB  &SDKYLST           SET IF KEYLIST SPECIFIED     @G860P31 07250052
         LCLB  &SDSP21P           SET IF HBB2102 PARM LIST     @G860P31 07300052
         LCLB  &SDVRSNB           SET IF VERSION NUMBER IN LIST    @T1P 07350052
         LCLB  &SDTYPNL          SET IF TYPE=NOLOCAL SPECIFIED @ZMC2707 07400052
         LCLB  &SDTYPRC           SET IF TYPE=FAILRC SPECIFIED     @L2A 07450052
.* FLAGS FOR MDUMP OPTIONS                                              07500052
         LCLC  &PLVER             PLISTVER                         @T1P 07550052
         LCLB  &SDPREG            SET IF PSWREG SPECIFIED          @T1P 07600052
         LCLB  &SDSYMR            SET IF SYMREC SPECIFIED          @T1P 07650052
         LCLB  &SDID              SET IF ID OR IDAD SPECIFIED      @T1P 07700052
         LCLB  &SDIDAD            SET IF IDAD SPECIFIED            @T1P 07750052
         LCLB  &SDDEFS            SET IF DEFAULTS/DEFS SPECIFIED   @T1P 07800052
         LCLB  &SDNODEF           SET IF NODEFAULTS/NODEFS         @T1P 07850052
         LCLB  &SDIO              SET IF IO SPECIFIED              @T1P 07900052
.*                                                                      07950052
.********************************************************************** 08000052
.* IF ANY POSITIONAL PARAMETERS WERE SPECIFIED, THE MACRO IS            08050052
.* SPECIFIED INCORRECTLY AND IS PROBABLY MISSING A SET OF               08100052
.* PARENTHESIS.                                                @G860P1X 08150052
.********************************************************************** 08200052
.*                                                                      08250052
.INVKSP2 ANOP                                                  @G860P1X 08400052
         LCLC  &LA                      "LA" OR "LAE" VIA SYSSTATE @L3A 08425052
         GBLC  &SYSASCE                                            @L3A 08437552
         SYSSTATE TEST                  TEST ASC ENVIRONMENT       @L3A 08450052
&LA      SETC  'LA'                     MUST USE LA INSTRUCTION    @L3A 08500052
         AIF   ('&SYSASCE' EQ 'P').NOLAE                           @L3A 08550052
&LA      SETC  'LAE'                    MUST USE LAE               @L3A 08600052
.NOLAE   ANOP                                                      @L3A 08650052
         AIF  ('&SYSLIST(1)' NE '').MESG1A                     @G860P1X 08700052
.*                                                                      08750052
.********************************************************************** 08800052
.*                                                                      08850052
.*         SYNTAX CHECK FOR MUTUALLY EXCLUSIVE OPTIONS                  08900052
.*                                                             @G860P31 08950052
.********************************************************************** 09000052
.*                                                                      09050052
         AIF   ('&HDR' NE '' AND '&HDRAD' NE '').MESG2A     MUTUALLY    09100052
         AIF   ('&ID' NE '' AND '&IDAD' NE '').MESG2F              @T1P 09150052
         AIF   ('&STORAGE' NE '' AND '&LIST' NE '').MESG2B   EXCLUSIVE  09200052
.*       TEST STORAGE AND LISTA - MUTUALLY EXCLUSIVE           @G383P1U 09250052
         AIF   ('&STORAGE' NE '' AND '&LISTA' NE '').MESG2C    @G383P1U 09300052
.*       TEST LIST AND LISTA - MUTUALLY EXCLUSIVE              @G383P1U 09350052
         AIF   ('&LIST' NE '' AND '&LISTA' NE '').MESG2D       @G383P1U 09400052
.*       TEST SUMLIST AND SUMLSTA - MUTUALLY EXCLUSIVE         @G383P1U 09450052
         AIF   ('&SUMLIST' NE '' AND '&SUMLSTA' NE '').MESG2E  @G383P1U 09500052
.*       TEST ASID AND ASIDLST - MUTUALLY EXCLUSIVE            @G386P31 09550052
         AIF   ('&ASID' NE '' AND '&ASIDLST' NE '').MESG10     @G383P1U 09600052
.*                                                                      09650052
.********************************************************************** 09700052
.*                                                                      09750052
.*    PARSE THE HDR PARAMETER FOR INVALID LENGTH AFTER ACCOUNTING       09800052
.*    FOR STARTING, ENDING, AND PAIRED APOSTROPHES.                     09850052
.*                                                             @G860P31 09900052
.********************************************************************** 09950052
.*                                                                      10000052
         AIF   ('&HDR' EQ '').SD3I          HDR SPECIFIED          @T1P 10050052
         AIF   ('&HDR'(1,1) NE '''').MESG9  IS FIRST CHAR APOSTROPHE    10100052
&CTR1    SETA  K'&HDR-1                     LENGTH OF USER DATA +1      10150052
         AIF   (&CTR1 LT 2).MESG9A          INVALID HDR SPECIFICATION   10200052
.*                                                            @ZMC0399  10250052
&HDRCTR  SETA  0                            NUMBER OF PAIRED APOSTROHES 10300052
&CTR2    SETA  2                            INDEX FIRST CHAR-USER DATA  10350052
.SDLOOP  ANOP                                                           10400052
         AIF   (&CTR2 GE &CTR1).SD2              END OF SCAN            10450052
         AIF   ('&HDR'(&CTR2,2) EQ '''''').SD1   PAIRED APOSTROPHES     10500052
&CTR2    SETA  &CTR2+1                           UPDATE INDEX BY 1      10550052
         AGO   .SDLOOP                           CONTINUE LOOP          10600052
.SD1     ANOP                                                           10650052
&HDRCTR  SETA  &HDRCTR+1                    ONE MORE PAIRED APOSTROPHES 10700052
&CTR2    SETA  &CTR2+2                      UPDATE INDEX BY 2           10750052
         AGO   .SDLOOP                      CONTINUE LOOP               10800052
.SD2     ANOP                                                           10850052
&CTR1    SETA  K'&HDR-2-&HDRCTR             LENGTH OF USER DATA         10900052
         AIF   (&CTR1 GT 100).MESG8         USER DATA TOO LONG          10950052
.********************************************************************** 11000052
.*                                                                      11050052
.*    PARSE THE ID PARAMETER FOR INVALID LENGTH AFTER ACCOUNTING        11100052
.*    FOR STARTING, ENDING, AND PAIRED APOSTROPHES.                     11150052
.*                                                                 @T1P 11200052
.********************************************************************** 11250052
.*                                                                      11300052
.SD3I    AIF   ('&ID' EQ '').SD3            ID SPECIFIED           @T1P 11350052
         AIF   ('&ID'(1,1) NE '''').MESG9I  FIRST CHAR APOSTROPHE  @T1P 11400052
&CTR1    SETA  K'&ID-1                      LENGTH+1               @T1P 11450052
         AIF   (&CTR1 LT 2).MESG9AI         INVALID ID SPECIFICATION   *11500052
                                                                   @T1P 11550052
&IDCTR   SETA  0                            PAIRED APOSTROPHES     @T1P 11600052
&CTR2    SETA  2                            INDEX FIRST CHAR       @T1P 11650052
.SDLOOPI ANOP                                                      @T1P 11700052
         AIF   (&CTR2 GE &CTR1).SD2I             END OF SCAN       @T1P 11750052
         AIF   ('&ID'(&CTR2,2) EQ '''''').SD1I   PAIRED            @T1P 11800052
&CTR2    SETA  &CTR2+1                           UPDATE INDEX BY 1 @T1P 11850052
         AGO   .SDLOOPI                          CONTINUE LOOP     @T1P 11900052
.SD1I    ANOP                                                      @T1P 11950052
&IDCTR   SETA  &IDCTR+1                     ONE MORE               @T1P 12000052
&CTR2    SETA  &CTR2+2                      UPDATE INDEX BY 2      @T1P 12050052
         AGO   .SDLOOPI                     CONTINUE LOOP          @T1P 12100052
.SD2I    ANOP                                                      @T1P 12150052
&CTR1    SETA  K'&ID-2-&IDCTR               LENGTH OF USER DATA    @T1P 12200052
         AIF   (&CTR1 GT 50).MESG8I         USER DATA TOO LONG     @T1P 12250052
.*                                                                      12300052
.********************************************************************** 12350052
.*                                                                      12400052
.*    CHECK FOR INVALID PARAMETERS SPECIFIED WITH MF=L                  12450052
.*                                                             @G860P31 12500052
.********************************************************************** 12550052
.*                                                                      12600052
.SD3     AIF   ('&MF' NE 'L').SD5           IS MF STANDARD OR EXECUTE   12650052
         AIF   ('&ASID' NE '').MESG5A       ASID INVALID W/MF=L         12700052
         AIF   ('&ECB' NE '').MESG5B        ECB INVALID W/MF=L          12750052
         AIF   ('&SRB' NE '').MESG5F        SRB INVALID W/MF=L     @L4A 12800052
         AIF   ('&BRANCH' NE '').MESG5C     BRANCH INVALID W/MF=L       12850052
         AIF   ('&ASIDLST' NE '').MESG5D   ASID INV W/MF=L     @G33VPHD 12900052
.*                                                                      12950052
.********************************************************************** 13000052
.*                                                                      13050052
.*  CHECK FOR VALID OPERANDS (YES OR NO) ON BUFFER, BRANCH, AND QUIESCE 13100052
.*                                                             @G860P31 13150052
.********************************************************************** 13200052
.*                                                                      13250052
.SD5     AIF   ('&BUFFER' EQ '').SD9        IS BUFFER SPECIFIED         13300052
.*                                                             @G33VPHD 13350052
         AIF   ('&BUFFER' NE 'YES' AND '&BUFFER' NE 'NO').MESG4B        13400052
.*                                                             @G33VPHD 13450052
.SD9     AIF   ('&BRANCH' EQ '').SD11       IS BRANCH SPECIFIED         13500052
         AIF   ('&BRANCH' NE 'YES' AND '&BRANCH' NE 'NO').MESG4C        13550052
.SD11    AIF   ('&QUIESCE' EQ '').SD13      IS QUIESCE SPECIFIED        13600052
         AIF   ('&QUIESCE' NE 'YES' AND '&QUIESCE' NE 'NO').MESG4D      13650052
.*                                                                      13700052
.********************************************************************** 13750052
.*                                                                      13800052
.*  CHECK FOR AN EVEN NUMBER OF STORAGE RANGES.                         13850052
.*                                                             @G860P31 13900052
.********************************************************************** 13950052
.*                                                                      14000052
.SD13    AIF   ('&STORAGE' EQ '').SD15      IS STORAGE SPECIFIED        14050052
&CTR1    SETA  N'&STORAGE/2                 NUMBER OF ADDRESS PAIRS     14100052
&CTR2    SETA  (N'&STORAGE-1)/2             NUMBER OF PAIRS MINUS 1     14150052
         AIF   (&CTR1 EQ &CTR2).MESG6       ODD NUMBER OF ADDRESSES     14200052
.SD15    ANOP                                                           14250052
.*                                                                      14300052
.********************************************************************** 14350052
.*                                                                      14400052
.*       SDFLAG0 PROCESSING                                             14450052
.*                                                             @G860P31 14500052
.********************************************************************** 14550052
.*                                                                      14600052
&SDDCB   SETB  ('&DCB' NE '')                IF DCB SPECIFIED           14650052
&SDBUFF  SETB  ('&BUFFER' EQ 'YES')          IF BUFFER TO BE DUMPED     14700052
&SDSTOR  SETB  ('&STORAGE' NE '' OR '&LIST' NE '')    STORAGE ADDR LIST 14750052
&SDHDR   SETB  ('&HDR' NE '' OR '&HDRAD' NE '')       USER DATA         14800052
         AIF   ('&ECB' NE '' AND '&SRB' NE '').MESG13B SRB AND ECB ARE X14850052
               MUTUALLY EXCLUSIVE                                  @L4A 14900052
&SDECB   SETB  ('&ECB' NE '')               IF ECB SPECIFIED            14950052
         AIF   ('&ECB(2)' NE '' AND '&ECB(2)' NE 'WRITE' AND '&ECB(2)' X15000052
               NE 'CAPTURE').MESG3B                                @L8A 15050052
&SDECBWR SETB  ('&ECB(2)' EQ 'WRITE')       IS THE ECB TO BE POSTED    X15100052
               WHEN THE WRITE PHASE HAS COMPLETED                  @D1C 15150052
         AIF   (&SDDCB EQ 0 OR &SDECB EQ 0 OR &SDECBWR EQ 1).SD20      X15200052
               IF NOT (DCB & ECB & CAPTURE REQUEST/DEFAULTED) DON'T    X15250052
               ISSUE INFORMATIONAL AND OVERRIDE REQUEST            @D1C 15300052
         MNOTE 0,'ECB POST TIME FORCED TO WRITE BECAUSE THE DCB KEYWORDX15350052
                SPECIFIED'                                         @L8A 15400052
&SDECBWR SETB  1                            FORCE TO WRITE PHASE   @D1A 15450052
.SD20    ANOP                                                      @L8A 15500052
&SDSRB   SETB  ('&SRB' NE '')                IF SRB SPECIFIED      @L4A 15550052
         AIF   ('&SRB(2)' NE '' AND '&SRB(2)' NE 'WRITE' AND '&SRB(2)' X15600052
               NE 'CAPTURE').MESG3B                                @L8A 15650052
&SDSRBWR SETB  ('&SRB(2)' EQ 'WRITE')       IS THE SRB TO BE SCHEDULED X15700052
               WHEN THE CAPTURE PHASE HAS COMPLETED                @D1C 15750052
         AIF   (&SDDCB EQ 0 OR &SDSRB EQ 0 OR &SDSRBWR EQ 1).SD21      X15800052
               IF NOT (DCB & SRB & CAPTURE REQUEST/DEFAULTED) DON'T    X15850052
               ISSUE INFORMATIONAL AND OVERRIDE REQUEST            @D1C 15900052
         MNOTE 0,'SRB SCHEDULE TIME FORCED TO WRITE BECAUSE THE DCB KEYX15950052
               WORD SPECIFIED'                                     @D1C 16000052
&SDSRBWR SETB  1                            FORCE TO WRITE PHASE   @D1A 16050052
.SD21    ANOP                                                      @D1A 16100052
&SDASID  SETB  ('&ASID' NE '')               IF ASID SPECIFIED          16150052
&SDQUIET SETB  ('&QUIESCE' NE 'NO')          IF SYSTEM TO BE QUIESCED   16200052
.*             SDQUIET IS SET FOR QUIESCE=YES OR DEFAULTED TO YES       16250052
.*             THE DEFAULT ONLY APPLIES TO THE LIST AND STANDARD FORM,  16300052
.*             AND MUST BE COMPENSATED FOR ON THE EXECUTE FORM.         16350052
&SDBRNCH SETB  ('&BRANCH' EQ 'YES')          IF LINKAGE BY BRANCH ENTRY 16400052
&SDFLAG0 SETA  128*&SDDCB+64*&SDBUFF+32*&SDSTOR+16*&SDHDR+8*&SDECB+4*&SX16450052
               DASID+2*&SDQUIET+1*&SDBRNCH                              16500052
.*                                                                      16550052
.********************************************************************** 16600052
.*                                                                      16650052
.*       SDFLAG1 PROCESSING                                             16700052
.*                                                             @G860P31 16750052
.********************************************************************** 16800052
.*                                                                      16850052
&DUMPTYP SETB  1                  ALWAYS ON FOR SVC DUMP                16900052
&SDNEW   SETB  1                  ALWAYS SET TO 1 FOR NEW SDUMP MACRO   16950052
.*                                                             @G33VPHD 17000052
&SDASIDL SETB  ('&ASIDLST' NE '') IF ASIDLIST WAS SPECIFIED             17050052
.*                                                             @G33VPHD 17100052
&SDSUMLT SETB  ('&SUMLIST' NE '') IF SUMLIST WAS SPECIFIED              17150052
.*                                                             @G33VPHD 17200052
&SDFLAG1 SETA  128*&DUMPTYP+32*&SDNEW+16*&SDASIDL+8*&SDSUMLT            17250052
.*                                                                      17300052
.********************************************************************** 17350052
.*                                                                      17400052
.*       SDFLAG2 PROCESSING                                             17450052
.*                                                             @G860P31 17500052
.********************************************************************** 17550052
.*                                                                      17600052
&SDLISTA SETB  ('&LISTA' NE '')   SET IF LISTA IS SPECIFIED    @G383P1U 17650052
&SDLISTD SETB  ('&LISTD' NE '')   SET IF LISTD IS SPECIFIED        @L6A 17700052
&SDSMLTA SETB  ('&SUMLSTA' NE '') SET IF SUMLSTA SPECIFIED     @G383P1U 17750052
&SDSMLTL SETB  ('&SUMLSTL' NE '') SET IF SUMLSTL SPECIFIED         @L5A 17800052
&SDFLAG2 SETA  128*&SDLISTA+64*&SDSMLTA+2*&SDLISTD+&SDSMLTL        @L6C 17850052
.*                                                                      17900052
.********************************************************************** 17950052
.*                                                                      18000052
.*       SDCNTL1 PROCESSING                                             18050052
.*                                                                 @T1P 18100052
.********************************************************************** 18150052
.*                                                                      18200052
&SDPREG  SETB  ('&PSWREGS' NE '')   SET FOR PSWREGS                @T1P 18250052
&SDSRS   SETB  ('&SYMREC' NE '')    SET FOR SYMREC                 @T1P 18300052
&SDID    SETB  ('&ID' NE '' OR '&IDAD' NE '')         ID DATA      @T1P 18350052
&SDIDAD  SETB  ('&IDAD' NE '')      SET FOR IDAD                   @T1P 18400052
&SDCNTL1 SETA  32*&SDPREG+16*&SDSRS+8*&SDID                        @T1P 18450052