         MACRO                                                          00050000
&NAME    SETIME &SEC,&ADDR,&PREC                               @D33PADO 00100000
         LCLA  &MAX                                            @D33PADO 00150000
.*                                                                      00200000
         AGO   .ZZZ                                                     00250000
*********************************************************************** 00300000
*                                                                     * 00350000
*        THIS MACRO IS "RESTRICTED MATERIALS OF IBM"                  * 00400000
*        5686-007 (C) COPYRIGHT IBM CORP. 1977,1988                   * 00450000
*        ALL RIGHTS RESERVED                                          * 00500000
*        LICENSED MATERIALS - PROGRAM PROPERTY OF IBM                 * 00550000
.*       SEE COPYRIGHT INSTRUCTIONS, G120-2083                        * 00600000
*                                                                     * 00650000
*********************************************************************** 00700000
.ZZZ ANOP                                                               00750000
&MAX     SETA  55924                                           @D33PADO 00800000
         AIF   ('&PREC' NE 'PREC').STMAX                       @D33PADO 00850000
&MAX     SETA  8388607                                         @D33PADO 00900000
.STMAX   ANOP                                                  @D33PADO 00950000
         AIF   ('&SEC' EQ '').NS                                        01000000
&NAME    DS    0H                                              @D33PADO 01050000
         AIF   ('&SEC'(1,1) EQ '(').SR                                  01100000
         AIF   (&SEC(1) GT &MAX).TOHI                          @D33PADO 01150000
         L     1,=A(&SEC)                                      @D33PADO 01200000
         AGO   .M                                                       01250000
.SR      AIF   ('&SEC'(2,2) EQ '1)').M                         @D33PADO 01300000
         LR    1,&SEC(1)                                       @D33PADO 01350000
.M       ANOP                                                  @D33PADO 01400000
         AIF   ('&PREC' EQ 'PREC').SHIFT                       @D33PADO 01450000
         AIF   ('&PREC' EQ '').NOPRE                           @D33PADO 01500000
         MNOTE 6,'PREC = &PREC IS INVALID - OPERAND IGNORED'   @D33PADO 01550000
.NOPRE   ANOP                                                  @D33PADO 01600000
         M     0,=F'76800' CONVERT TO 1/300 SECOND  IN BIT 23  @D33PADO 01650000
.TST     AIF   (T'&ADDR EQ 'O').SVC10                                   01700000
         AIF   ('&ADDR'(1,1) EQ '(').V2                                 01750000
         L     0,=A(&ADDR)                                              01800000
         AGO   .SVC24                                                   01850000
.V2      AIF   ('&ADDR(1)' NE '0' AND '&ADDR(1)' NE '1').LOAD           01900000
         MNOTE 3,'INVALID REGISTER SPEC.FOR TECB ADDRESS.PATCH NEXT INS-01950000
               TRUCTION'                                                02000000
.LOAD    LR    0,&ADDR(1)                                               02050000
.SVC24   SVC   24                                                       02100000
         MEXIT                                                          02150000
.SVC10   SVC   10                                                       02200000
 MEXIT                                                                  02250000
.SHIFT   ANOP                                                  @D33PADO 02300000
         SLL   1,8                SET TIME IN BIT 23           @D33PADO 02350000
         AGO   .TST                                            @D33PADO 02400000
.TOHI MNOTE 6,'SECONDS SPECIFIED ABOVE MAXIMUM - MACRO IGNORED'         02450000
         MEXIT                                                          02500000
.NS MNOTE 6,'SECONDS OMITTED - MACRO IGNORED'                           02550000
         MEND                                                           02600000
