         MACRO                                                          00050000
&NAME    SETPFA &ENTRA,&AREA=,&DSPACE=,&MFG=                            00075052
         LCLA  &AREAA,&ENTRAA,&MFGA                            @D52GDWL 00100052
         LCLC  &AREAC,&DSPACEC,&ENTRAC,&MFGC                   @D52GDWL 00125052
.* IBM DISK OPERATING SYSTEM                                            00150000
* SUPERVISOR - SETPFA - 5686-032-06                                     00200052
.************************************************************* @D31UDRP 00250000
.*                                                           * @D31UDRP 00300000
       AGO  .ZZZ                                             * @D31UDRP 00350000
*      LICENSED MATERIALS - PROPERTY OF IBM                  * @D31UDRP 00400052
*      THIS MACRO IS "RESTRICTED MATERIALS OF IBM"           * @D31UDRP 00450052
*      5686-032 (C) COPYRIGHT IBM CORP. 1977, 1992           * @D31UDRP 00500052
*      SEE COPYRIGHT INSTRUCTIONS                            * @D31UDRP 00550052
.ZZZ   ANOP                                                  * @D31UDRP 00650000
.************************************************************* @D31UDRP 00700000
.*                                                             @D52GDWL 00750052
.*       ENTRA OPERAND EVALUATION                              @D52GDWL 00800052
.*                                                             @D52GDWL 00850052
         AIF   (T'&ENTRA NE 'O').A6                            @D52GDWL 00885752
         AIF   (T'&AREA NE 'O').A2                             @D52GDWL 00907052
         AIF   (T'&DSPACE NE 'O').A2                           @D52GDRP 00939152
         AIF   (T'&MFG EQ 'O').B0 GENERATE OLD INTERFACE       @D52GDRP 00971252
.A2      ANOP                                                  @D52GDWL 01003352
         MNOTE 2,'NO ENTRY ADDRESS SPECIFIED, OTHER PARAMETERS IGNORED' 01053352
         AGO   .B0                GENERATE OLD INTERFACE       @D52GDRP 01103352
.*                                                             @D52GDWL 01350052
.A6      ANOP                                                  @D52GDWL 01550052
.* ENTRY ADDRESS SPECIFIED                                     @D52GDRP 01566652
.*                                                             @D52GDWL 01583252
         AIF   ('&ENTRA'(1,1) EQ '(').A8                       @D52GDWL 01600052
&ENTRAC  SETC  '&ENTRA'               FORMAT: ENTRA=ADDRESS    @D52GDWL 01650052
&ENTRAA  SETA  1                      FORMAT: ENTRA=ADDRESS    @D52GDWL 01700052
         AGO   .A12                                            @D52GDWL 01750052
.A8      ANOP                                                  @D52GDWL 01800052
&ENTRAC  SETC  '&ENTRA'(2,K'&ENTRA-2) FORMAT: ENTRA=(REG)      @D52GDWL 01850052
&ENTRAA  SETA  2                      FORMAT: ENTRA=(REG)      @D52GDWL 01900052
.*                                                             @D52GDWL 01950052
.*       AREA OPERAND EVALUATION                               @D52GDWL 02000052
.*                                                             @D52GDWL 02050052
.A12     AIF   (T'&AREA NE 'O').A20                            @D52GDWL 02100052
         AIF   (T'&DSPACE  EQ 'O').A16                         @D52GDRP 02150052
         MNOTE 2,'DSPACE SPECIFICATION IGNORED, AREA NOT SPECIFIED'     02200052
.A16     ANOP                                                  @D52GDWL 02250052
         AIF   (T'&MFG  EQ 'O').B0 GENERATE OLD INTERFACE      @D52GDRP 02280052
         MNOTE 2,'MFG SPECIFICATION IGNORED, AREA NOT SPECIFIED'        02310052
         AGO   .B0                GENERATE OLD INTERFACE       @D52GDRP 02340052
.* AREA OPERAND SPECIFIED                                      @D52GDRP 02370052
.A20     AIF   ('&AREA'(1,1) EQ '(').A24                       @D52GDWL 02400052
&AREAC   SETC  '&AREA'                FORMAT: AREA=ADDRESS     @D52GDWL 02450052
&AREAA   SETA  1                      FORMAT: AREA=ADDRESS     @D52GDWL 02500052
         AGO   .A40                                            @D52GDWL 02550052
.A24     AIF   ('&AREA'(1,3) EQ '(S,').A28                     @D52GDWL 02600052
&AREAC   SETC  '&AREA'(2,K'&AREA-2)   FORMAT: AREA=(REG)       @D52GDWL 02650052
&AREAA   SETA  2                      FORMAT: AREA=(REG)       @D52GDWL 02700052
         AGO   .A40                                            @D52GDWL 02750052
.A28     ANOP                                                  @D52GDWL 02800052
&AREAC   SETC  '&AREA'(4,K'&AREA-4)   FORMAT: AREA=(S,NAME)    @D52GDWL 02850052
&AREAA   SETA  4                      FORMAT: AREA=(S,NAME)    @D52GDWL 02900052
.*                                                             @D52GDWL 02950052
.A40     ANOP                                                  @D52GDWL 03000052
.*                                                             @D52GDWL 03050052
.*       DSPACE OPERAND EVALUATION                             @D52GDWL 03100052
.*                                                             @D52GDWL 03150052
         AIF   (T'&DSPACE EQ 'O').A47                          @D52GDRP 03175052
         AIF   ('&DSPACE' EQ 'NO').A48                         @D52GDWL 03200052
         AIF   ('&DSPACE' EQ 'YES').A48                        @D52GDWL 03250052
         MNOTE 2,'DSPACE SPECIFICATION INVALID, DSPACE=NO ASSUMED'      03300052
.A47     ANOP                                                  @D52GDRP 03350052
&DSPACEC SETC  'NO'                                            @D52GDWL 03400052
         AGO   .A50                                            @D52GDWL 03425052
.A48     ANOP                                                  @D52GDWL 03450052
&DSPACEC SETC  '&DSPACE'                                       @D52GDWL 03500052
.*                                                             @D52GDWL 03550052
.*       MFG OPERAND EVALUATION                                @D52GDWL 03600052
.*                                                             @D52GDWL 03650052
.A50     ANOP                                                  @D52GDWL 03650752
&MFGA    SETA  0                                               @D52GDWL 03651452
         AIF   (T'&MFG EQ 'O').GENIN                           @D52GDWL 03652152
         AIF   ('&MFG'(1,3) NE '(S,').A60                      @D52GDWL 03652852
&MFGC    SETC  '+'.'&MFG(2)'                                   @D52GDWL 03653552
&MFGA    SETA  4                          FORMAT: MFG=(S,NAME) @D52GDWL 03654252
         AGO   .A80                                            @D52GDWL 03654952
.A60     AIF   ('&MFG'(1,1) NE '(').A70                        @D52GDWL 03655652
&MFGC    SETC  '&MFG'                                          @D52GDWL 03656352
&MFGA    SETA  2                          FORMAT: MFG=(REG)    @D52GDWL 03657052
         AGO   .A80                                            @D52GDWL 03657752
.A70     ANOP                                                  @D52GDWL 03658452
&MFGC    SETC  '+'.'&MFG'                                      @D52GDWL 03659152
&MFGA    SETA  1                          FORMAT: MFG=ADDR     @D52GDWL 03659852
.A80     ANOP                                                  @D52GDWL 03660552
.*                                                             @D52GDWL 03661252
.*       GENERATE PARAMETER LIST IN USER AREA                  @D52GDWL 03661952
.*                                                             @D52GDWL 03662652
         AIF   ('&NAME' EQ '').GMFG10                          @D52GDWL 03663352
&NAME    DS    0H                                              @D52GDWL 03664052
.GMFG10  ANOP                                                  @D52GDWL 03664752
.*       PROCESS REGISTER AND S-TYPE OPERANDS                  @D52GDWL 03665452
         AIF   (&ENTRAA NE 2).GMFG20                           @D52GDWL 03666152
         STCM  &ENTRAC,15,0&MFGC                               @D52GDWL 03666852
.GMFG20  AIF   (&AREAA NE 2).GMFG30                            @D52GDWL 03667552
         STCM  &AREAC,15,4&MFGC                                @D52GDWL 03668252
.GMFG30  ANOP                                                  @D52GDWL 03668952
         AIF   (&ENTRAA NE 1).GMFG40                           @D52GDWL 03669652
         L     0,=A(&ENTRAC)                                   @D52GDWL 03670352
         STCM  0,15,0&MFGC                                     @D52GDWL 03671052
.GMFG40  AIF   (&AREAA NE 4).GMFG50                            @D52GDWL 03677352
         LA    0,&AREAC                                        @D52GDWL 03683652
         STCM  0,15,4&MFGC                                     @D52GDWL 03684352
.GMFG50  AIF   (&AREAA NE 1).GMFG60                            @D52GDWL 03684452
         L     0,=A(&AREAC)                                    @D52GDWL 03684552
         STCM  0,15,4&MFGC                                     @D52GDWL 03684652
.GMFG60  ANOP                                                  @D52GDWL 03684752
         SR    0,0                                             @D52GDWL 03684852
         STCM  0,15,8&MFGC                                     @D52GDWL 03684952
         AIF   ('&DSPACEC' NE 'YES').GMFG80                    @D52GDWL 03685052
         MVI   8&MFGC,X'80'                                    @D52GDWL 03685152
.GMFG80  ANOP                                                  @D52GDWL 03685252
.*                                                             @D52GDWL 03685352
         AIF   (&MFGA NE 2).GMFG90                             @D52GDWL 03685452
&MFGC    SETC  '&MFG'(2,K'&MFG-2)                              @D52GDRP 03685552
         LR    1,&MFGC                                         @D52GDWL 03686452
         AGO   .GMFG95                                         @D52GDWL 03687152
.GMFG90  ANOP                                                  @D52GDWL 03687852
         LA    1,0&MFGC                                        @D52GDWL 03688552
.GMFG95  ANOP                                                  @D52GDWL 03689252
         LA    15,7                                            @D52GDWL 03689952
         SVC   121                                             @D52GDWL 03690652
         MEXIT                                                 @D52GDWL 03691352
.*                                                             @D52GDWL 03692052
.*                                                             @D52GDWL 03692752
.*       GENERATE INLINE PARAMETER LIST                        @D52GDWL 03693452
.*                                                             @D52GDWL 03694152
.GENIN   ANOP                                                  @D52GDWL 03694852
         AIF   ('&NAME' EQ '').GEN0                            @D52GDWL 03722452
&NAME    DS    0H                                              @D52GDWL 03750052
.GEN0    ANOP                                                  @D52GDWL 03800052
         CNOP  0,4                                             @D52GDWL 03850052
.*       PROCESS REGISTER AND S-TYPE OPERANDS                  @D52GDWL 03854552
         AIF   (&ENTRAA NE 2).GEN01                            @D52GDWL 03859052
         ST    &ENTRAC,IS&SYSNDX                               @D52GDWL 03863552
.GEN01   AIF   (&AREAA NE 2).GEN02                             @D52GDWL 03868052
         ST    &AREAC,IS&SYSNDX+4                              @D52GDWL 03872552
.GEN02   ANOP                                                  @D52GDWL 03877052
         AIF   (&AREAA NE 4).GEN03                             @D52GDWL 03881552
         LA    0,&AREAC                                        @D52GDWL 03886052
         ST    0,IS&SYSNDX+4                                   @D52GDWL 03890552
.GEN03   ANOP                                                  @D52GDWL 03895052
         BAL   1,*+16                                          @D52GDWL 03900052
IS&SYSNDX DS   0H                                              @D52GDRP 03925052
         AIF   (&ENTRAA NE 1).GEN20                            @D52GDWL 03950052
         DC    A(&ENTRAC)                                      @D52GDWL 04000052
         AGO   .GEN30                                          @D52GDWL 04050052
.GEN20   DC    F'0'                                            @D52GDWL 04100052
.GEN30   ANOP                                                  @D52GDWL 04150052
         AIF   (&AREAA NE 1).GEN40                             @D52GDWL 04200052
         DC    A(&AREAC)                                       @D52GDWL 04250052
         AGO   .GEN50                                          @D52GDWL 04270052
.GEN40   DC    F'0'                                            @D52GDWL 04290052
.GEN50   ANOP                                                  @D52GDWL 04310052
         AIF   ('&DSPACEC' NE 'YES').GEN52                     @D52GDWL 04330052
         DC    X'80'                                           @D52GDWL 04350052
         DC    XL3'0'                                          @D52GDWL 04370052
         AGO   .GEN56                                          @D52GDWL 04390052
.GEN52   DC    F'0'                                            @D52GDWL 04410052
.GEN56   ANOP                                                  @D52GDWL 04430052
         LA    15,7                                            @D52GDWL 04950052
         SVC   121                                             @D52GDWL 05250052
         MEXIT                                                 @D52GDWL 05300052
.*                                                             @D52GDWL 05350052
.*                                                             @D52GDWL 05400052
.*       OLD SVC 71 INTERFACE                                  @D52GDWL 05450052
.*                                                             @D52GDWL 05500052
.B0      ANOP                                                  @D52GDWL 05550052
         AIF   (T'&ENTRA EQ 'O').B2                                     05900052
         AIF   ('&ENTRA'(1,1) EQ '(').B1                                05950052
&NAME    L     0,=A(&ENTRA)       LOAD ADDR OF PFA-ROUTINE     DF282049 06000052
         AGO   .B3                                                      06050052
.B1      ANOP                                                           06100052
         AIF   ('&ENTRA'(2,3) EQ '0) ').B4                     @DM01843 06150052
&NAME    LR    0,&ENTRA(1)            LOAD ADR OF PFA-ROUTINE @DF282049 06200052
         AGO   .B3                                                      06250052
.B2      ANOP                                                           06300052
&NAME    SR    0,0                                            @DF282049 06350052
.B3      ANOP                                                           06400052
         SVC   71                                              @DL28549 06450052
         MEXIT                                                @DF282049 06500052
.B4      ANOP                                                 @DF282049 06550052
&NAME    SVC   71                                             @DF282049 06600052
         MEND                                                           06650052
