*/*                                                                  */ 00006000
*/* STATUS  = HBB4410                                                */ 00007000
*/*                                                                  */ 00008000
* %/*                                                                   00009000
        MACRO                                                           00010000
&NAME    SETRP &RETADDR=,&RETREGS=,&DUMP=,&RECORD=,&WKAREA=,&REGS=,    J00011000
               &DUMPOPT=,&DUMPOPX=,&RECPARM=,&RC=0,&FRELOCK=,&CPU=,    X00012000
               &COMPCOD=,&FRESDWA=,&RUB=,                              S00013000
               &SERIAL=,&RETRY=,&FRLKRTY=,&REMREC=,&RETRY15=,          S00014000
               &REASON=,&SSRESET=                              @D64ADOW 00015000
.*                                                                      00016000
         AGO   .NOCOPY                                                  00016100
*********************************************************************** 00016200
*      LICENSED MATERIALS - PROPERTY OF IBM                           * 00016300
*      "RESTRICTED MATERIALS OF IBM"                                  * 00016400
*      5686-066                                                       * 00016500
*      (C)COPYRIGHT IBM CORP. 1996                                    * 00016600
*********************************************************************** 00016700
.NOCOPY ANOP                                                            00016800
.*  CHANGE ACTIVITY=                                           @ZA86653 00017000
.*SU33(ENHANCED DUMP) 7/30/76                                  @G33SPHW 00018000
.*MVS/SYSTEM PRODUCT RELEASE 2 6/26/79                         @G382P2F 00019000
.*MVS/SYSTEM PRODUCT HBB2102 03/27/81                          @G860P1C 00020000
.*             APAR OZ86653 - SET SDWAACF2 BIT ON TO FREE CML  @ZA86653 00021000
.*                            LOCK IF REQUESTED.               @ZA86653 00022000
.* $L1=RASENH ,JBB2220,840313,PDA8: RETRY ENHANCEMENTS             @L1C 00023000
.* $P1=PA20094,JBB2220,850214,PDA8: REMOVE SYSLIST CHECKING        @P1C 00024000
.* $L2 = AR    HBB3310 850901 PDXB: AR SUPPORT                          00025000
.* $D1=DCR0031,HBB3310,860423,PDT9: IOS LOCK SUPPORT               @D1A 00026000
.* $L3=DATASPAC,HBB3310,860728,PDA8: RSMDS LOCK SUPPORT            @L3A 00027000
.* $L4=DATASPAC,HBB3310,861029,PDT9: PROPAGATION OF DATA SPACE STORAGE  00028000
.*                                   RANGES FOR ABDUMP             @L4A 00029000
.* $P2=PC40460,HBB3310,861215,PDT9: NO LOCKWORD FOR IOS LOCK       @P2A 00030000
.* $P3=PC40713,HBB3310,870225,PDT9: MOVE IOS LOCK BIT              @P3A 00031000
.* $L5=LOCKR  ,JBB3320,870916,PDT9: LOCK RESTRUCTURE               @L5A 00032000
.* $L6=CLOCK  ,JBB3320,870916,PDT9: NEW LOCK FOR ETR               @L6A 00033000
.* $L7=JUP03  ,HBB4410,870916,PDT9: NEW LOCKS FOR SMSX             @L7A 00034000
.* $L8=COUPLRTM,HBB4410,870916,PDT9: NEW LOCKS FOR XCF             @L8A 00035000
.* $L9=USERV   ,HBB4410,890626,PDCI: NEW IOSULUT LOCK              @L9A 00036000
.* $01=OY37687 ,HBB4410,901101,PDXB: FIX REASON 4095 CHECK              00037000
.* @D61ADTN: VSE/ESA COMPATIBILITY WITH MVS/ESA                         00038000
.*A000000                                                        Y02704 00039000
.********************************************************************** 00040000
.*   CHECK FOR UNSUPPORTED KEYWORDS IN THE VSE ENVIRONMENT   @D61ADTN * 00041000
.********************************************************************** 00042000
.*                                                                      00043000
.*       AIF (T'&DUMPOPT EQ'O').IGNORET                        @D61ADTN 00044000
.*       MNOTE 0,'PARAMETER DUMPOPT= IS IGNORED BY VSE/ESA.'   @D61ADTN 00045000
.IGNORET ANOP                                                  @D61ADTN 00046000
.*       AIF (T'&DUMPOPX EQ'O').IGNOREX                        @D61ADTN 00047000
.*       MNOTE 0,'PARAMETER DUMPOPX= IS IGNORED BY VSE/ESA.'   @D61ADTN 00048000
.IGNOREX ANOP                                                  @D61ADTN 00049000
.*       AIF (T'&FRELOCK EQ'O').IGNOREL                        @D61ADTN 00050000
.*       MNOTE 0,'PARAMETER FRELOCK= IS IGNORED BY VSE/ESA.'   @D61ADTN 00051000
.IGNOREL ANOP                                                  @D61ADTN 00052000
.*       AIF (T'&RECORD EQ'O').IGNORER                         @D61ADTN 00053000
.*       MNOTE 0,'PARAMETER RECORD= IS IGNORED BY VSE/ESA.'    @D61ADTN 00054000
.IGNORER ANOP                                                  @D61ADTN 00055000
.*       AIF (T'&RECPARM EQ'O').IGNOREP                        @D61ADTN 00056000
.*       MNOTE 0,'PARAMETER RECPARM= IS IGNORED BY VSE/ESA.'   @D61ADTN 00057000
.IGNOREP ANOP                                                  @D61ADTN 00058000
         AIF (T'&SERIAL NE 'O').ERRSER                         @D61ADTN 00059000
         AIF (T'&FRLKRTY NE 'O').ERRFRLK                       @D61ADTN 00060000
         AIF (T'&SSRESET NE 'O').ERRSSRS                       @D64ADOW 00061000
.*                                                                      00062000
         LCLC  &A                                                       00063000
         LCLA  &B                                                       00064000
         LCLA  &I                                                       00065000
         LCLA  &J                                                       00066000
         LCLA  &K                                                       00067000
         LCLA  &L                                                       00068000
         LCLA  &M                                                       00069000
         LCLC  &N                                                       00070000
         LCLA  &LFLAG1                                                  00071000
         LCLA  &LFLAG2                                                  00072000
         LCLA  &LFLAG3                                       @G860P1C   00073000
         LCLA  &LFLAG4                                       @G860P1C   00074000
         LCLA  &LFLAG5                                           @L5A   00075000
         LCLA  &LFLAG6                                           @L5A   00076000
         LCLA  &LFLAG7                                           @L5A   00077000
         LCLA  &LFLAG8                                           @L5A   00078000
         LCLB  &LOCKEXT                                      @G860P1C   00079000
         LCLB  &CCRC                                         @G860P1C   00080000
         LCLC  &LA                      "LA" OR "LAE" VIA SYSSTATE @L2A 00081000
         GBLC  &SYSASCE                                            @L2A 00082000
         SYSSTATE TEST                  TEST ASC ENVIRONMENT       @L2A 00083000
&LA      SETC  'LA'                     MUST USE LA INSTRUCTION    @L2A 00084000
         AIF   ('&SYSASCE' EQ 'P').NOLAE                           @L2A 00085000
&LA      SETC  'LAE'                    MUST USE LAE               @L2A 00086000
.NOLAE   ANOP                                                      @L2A 00087000
&B       SETA  &RC                                                      00088000
&I       SETA  1                                                        00089000
&J       SETA  N'&FRELOCK                                               00090000
&LFLAG1  SETA  0                                                        00091000
&LFLAG2  SETA  0                                                        00092000
&LFLAG3  SETA  0                                             @G860P1C   00093000
&LFLAG4  SETA  0                                             @G860P1C   00094000
&LFLAG5  SETA  0                                                        00095000
&LFLAG6  SETA  0                                                        00096000
&LFLAG7  SETA  0                                                 @L5A   00097000
&LFLAG8  SETA  0                                                 @L5A   00098000
&LOCKEXT SETB  0                                             @G860P1C   00099000
&CCRC    SETB  0                                             @G860P1C   00100000
         NOPR  SDWANOPR    IF THIS STATEMENT CAUSES ASSEMBLER ERROR     00101000
*                          IT IMPLIES THAT SETRP AND THE SDWA ARE       00102000
*                          BEING USED IMCOMPATABLY           @G38AP2F   00103000
         ORG   *-2         OVERLAY THE PREVIOUS INSTRUCTION  @G38AP2F   00104000
         AIF   ('&WKAREA' NE '').CONT                                   00105000
         AIF   ('&NAME' EQ '').RC                                       00106000
&NAME    EQU   *                                                        00107000
         AGO   .RC                                                      00108000
.CONT    ANOP                                                           00109000
&A       SETC  'WKAREA'                                                 00110000
         AIF   ('&WKAREA'(1,1) NE '(').ERR1                             00111000
&NAME    LR    1,&WKAREA(1) .           ACCESS POINTER TO SDWA          00112000
         AIF   ('&SYSASCE' EQ 'P').RC                              @L2A 00113000
         CPYA  1,&WKAREA(1)                                        @L2A 00114000
.RC      ANOP                                                           00115000
         AIF   ('&RC'(1,1) EQ '(').ERR17                                00116000
         AIF   (&B EQ 16).ERRC16                               @D64ADOW 00117000
         AIF   (&B EQ 0).STRC                                  @D64ADOW 00118000
         AIF   (&B EQ 4).RETA                                           00119000
         IHBERMAC 54,,&RC                                               00120000
         MEXIT                                                          00121000
.RETA    ANOP                                                           00122000
         AIF   ('&RETADDR' EQ '').ERR2                                  00123000
         AIF   ('&FRLKRTY' EQ '' AND '&REMREC' EQ '' AND               X00124000
               '&RETRY15' EQ '').MVRC   CHECK FOR RETRY OPTIONS    @L1A 00125000
.********************************************************************** 00126000
.*              RETRY OPTIONS PORCESSING                          @L1A* 00127000
.********************************************************************** 00128000
         L     15,SDWAXPAD-SDWA(0,1)      LIST OF EXTENSIONS PTR   @L1A 00129000
         AIF   ('&SYSASCE' EQ 'P').NOAR17                          @L2A 00130000
         CPYA  15,1                   SET UP ALET OF EXTENSION     @L2A 00131000
.NOAR17  ANOP                                                      @L2A 00132000
         L     15,SDWASRVP-SDWAPTRS(0,15) LOAD 1ST REC EXT PTR     @L1A 00133000
         AIF   ('&FRLKRTY' EQ '').TSTST15 SEE IF FRLKRTY IS USED   @L1A 00134000
         AIF   ('&FRLKRTY' EQ 'YES').SETFRLK TEST IF THERE IS REQUEST  X00135000
                                          TO FREE LOCKS            @L1A 00136000
         AIF   ('&FRLKRTY' EQ 'NO').NOFRLK TEST IF THERE IS A REQUEST  X00137000
                                          NOT TO FREE LOCKS        @L1A 00138000
         AGO   .ERR21                     ILLEGAL FRLKRTY VALUE    @L1A 00139000
.SETFRLK OI    SDWARETF-SDWARC1(15),SDWAFRLK FREE LOCKS ON RETRY   @L1A 00140000
         AGO   .TSTST15                   TEST RETRY15 KEYWORD     @L1A 00141000
.NOFRLK  NI    SDWARETF-SDWARC1(15),X'FF'-SDWAFRLK DONT FREE LOCKS @L1A 00142000
.TSTST15 AIF   ('&RETRY15' EQ '').TSTFRRD IF RETRY15 SPECIFIED     @L1A 00143000
         AIF   ('&RETRY15' EQ 'YES').SETRG TEST IF REQUEST TO SET      X00144000
                                          REGISTER 15 ON RETRY     @L1A 00145000
         AIF   ('&RETRY15' EQ 'NO').NOSETRG TEST TO SEE IF REGISTER 15 X00146000
                                          SHOULD NOT BE SET        @L1A 00147000
         AGO   .ERR22                     ILLEGAL RETRY15 VALUE    @L1A 00148000
.SETRG   OI    SDWARETF-SDWARC1(15),SDWART15 TURN BIT ON TO SET R15 TO X00149000
                                          THE VALUE IN SDWASR15    @L1A 00150000
         AGO   .TSTFRRD                   GO TEST REMREC           @L1A 00151000
.NOSETRG NI    SDWARETF-SDWARC1(15),X'FF'-SDWART15 TURN OFF BIT SO R15 X00152000
                                    WILL BE SET WITH RETRY ADDRESS @L1A 00153000
.TSTFRRD AIF   ('&REMREC' EQ '').MVRC     REMREC SPECIFIED         @L1A 00154000
         AIF   ('&REMREC' EQ 'YES').SETFRRD TEST REMREC=YES        @L1A 00155000
         AIF   ('&REMREC' EQ 'NO').NOFRRD TEST REMREC=NO           @L1A 00156000
         AGO   .ERR23                     ILLEGAL REMREC VALUE     @L1A 00157000
.SETFRRD OI    SDWARETF-SDWARC1(15),SDWAREMR INDICATE DELETE FRR   @L1A 00158000
         AGO   .MVRC                      GO TO RC PROCESSING      @L1A 00159000
.NOFRRD  NI    SDWARETF-SDWARC1(15),X'FF'-SDWAREMR KEEP FRR        @L1A 00160000
.MVRC    MVI   SDWARCDE-SDWA(1),&RC(1) . INITIALIZE RC FIELD            00161000
         AIF   ('&RETADDR'(1,1) EQ '(').RETAR                           00162000
         LA    15,&RETADDR(1) .        ACCESS RETRY ADDRESS             00163000
         AGO   .RETAB                                                   00164000
.RETAR   ANOP                                                           00165000
         LR    15,&RETADDR(1) .        ACCESS RETRY ADDRESS             00166000
.RETAB   ANOP                                                           00167000
         ST    15,SDWARTYA-SDWA(,1) .  INITIALIZE RETRY ADDRESS FIELD   00168000
.FSDWA   ANOP                                                           00169000
         AIF   ('&FRESDWA' EQ '' OR '&FRESDWA' EQ 'NO').RECORD          00170000
         AIF   ('&FRESDWA' NE 'YES').ERR11                              00171000
         OI    SDWAACF2-SDWA(1),SDWAFREE   TURN ON FREE SDWA            00172000
         AGO   .RECORD                                                  00173000
.STRC    ANOP                        THIS SECTION EXECUTED IF RC=0 @L1C 00174000
         MVI   SDWARCDE-SDWA(1),&RC(1) .       PUT RC IN SDWA           00175000
         AIF   ('&FRESDWA' NE '' AND '&FRESDWA' NE 'NO').ERR10          00176000
         AIF   ('&RETREGS' NE '' AND '&RETREGS' NE 'NO').ERR15          00177000
         AIF   ('&RETADDR' NE '').ERR3                                  00178000
         AIF   ('&FRLKRTY' NE '').ERR16                            @L1A 00179000
         AIF   ('&REMREC' NE '').ERR24                             @L1A 00180000
         AIF   ('&RETRY15' NE '').ERR25                            @L1A 00181000
.RECORD  ANOP                                                           00182000
         AIF   ('&RECORD' EQ 'NO').TRECP                                00183000
         AIF   ('&RECORD' EQ 'IGNORE' OR '&RECORD' EQ '').RECPARM       00184000
         AIF   ('&RECORD' NE 'YES').ERR4                                00185000
         OI    SDWAACF2-SDWA(1),SDWARCRD   TURN ON RECORD INDICATOR     00186000
.RECPARM ANOP                                                           00187000
         AIF   ('&RECPARM' EQ '').DUMP                                  00188000
         AIF   ('&RECPARM'(1,1) EQ '(').RECPR                           00189000
         &LA   15,&RECPARM(1) .       ACCESS RECORD PARAMETER LIST @L2C 00190000
         AGO   .RECPCOM                                                 00191000
.RECPR   ANOP                                                           00192000
         &LA   15,0(,&RECPARM(1)) .   ACCESS RECORD PARAMETER LIST @L2C 00193000
.RECPCOM ANOP                                                           00194000
         MVC   SDWARECP-SDWA(24,1),0(15)                                00195000
*                                   MOVE RECORD PARAMETER INTO SDWA     00196000
         AGO   .DUMP                                                    00197000
.TRECP   ANOP                                                           00198000
         AIF   ('&RECPARM' NE '').ERR6                                  00199000
         NI    SDWAACF2-SDWA(1),X'FF'-SDWARCRD    TURN OFF RECORD FLAG  00200000
.DUMP    ANOP                                                           00201000
         AIF   ('&DUMP' EQ 'IGNORE' OR '&DUMP' EQ '').TDUMPOP           00202000
         AIF   ('&DUMP' EQ 'NO').TDOPTS                                 00203000
         AIF   ('&DUMP' NE 'YES').ERR7                                  00204000
         OI    SDWACMPF-SDWA(1),SDWAREQ   TURN ON DUMP INDICATOR        00205000
         AIF   ('&DUMPOPT' EQ '').RETREGS                               00206000
         AIF   ('&DUMPOPX' NE '').ERR26                            @L4A 00207000
         AIF   ('&DUMPOPT'(1,1) EQ '(').DUMPR                           00208000
         &LA   15,&DUMPOPT(1) .      ACCESS PTR TO DUMP PARAMETERS @L2C 00209000
         AGO   .DOPTCOM                                                 00210000
.DUMPR   ANOP                                                           00211000
         &LA   15,0(,&DUMPOPT(1)) .  ACCESS PTR TO DUMP PARAMETERS @L2C 00212000
.DOPTCOM ANOP                                                           00213000
         OI    SDWADPFS-SDWA(1),SDWADLST  TURN ON DUMP OPTION INDICATOR 00214000
         MVC   SDWADDAT-SDWA(4,1),4(15)  ACCESS SDATA AND PDATA FIELDS  00215000
         OI    SDWADPFS-SDWA(1),SDWAENSN  INDICATE ENHANCED DUMP        00216000
*                                                              @G382P2F 00217000
         OI    SDWADPF2-SDWA(1),SDWALVL2  INDICATE HBB2102 VERSION      00218000
*                                         OF SNAP PARMLIST     @G860P1C 00219000
         TM    1(15),X'02'             TEST FOR STORAGE LIST            00220000
         BO    M&SYSNDX                BRANCH IF STORAGE LIST SPECIFIED 00221000
         SR    14,14 .                 ZERO REGISTER FOR COMPARE        00222000
         CL    14,16(,15) .            FURTHER TEST FOR STORAGE LIST    00223000
         BE    Q&SYSNDX             BRANCH IF NO STORAGE LIST  @G860P1C 00224000
M&SYSNDX EQU   *                                               @G382P2F 00225000
         L     14,SDWAXPAD-SDWA(0,1) ADDRESS OF EXTENSION PTRS @G382P2F 00226000
         AIF   ('&SYSASCE' EQ 'P').NOAR1                           @L2A 00227000
         CPYA  14,1                   SET UP ALET OF EXTENSION     @L2A 00228000
.NOAR1   ANOP                                                      @L2A 00229000
         L     14,SDWADSRP-SDWAPTRS(0,14) ADDR OF DUMP STORAGE RANGES   00230000
*                                         EXTENSION            @G382P2F 00231000
         LTR   14,14                  TEST IF EXTENSION EXISTS @G382P2F 00232000
         BZ    Q&SYSNDX               BRANCH IF NO DUMP STORAGE RANGES  00233000
*                                     EXTENSION                @G860P1C 00234000
         OI    SDWADPFS-SDWA(1),SDWASLST   TURN ON STORAGE LIST         00235000
*                                          FLAG                @G382P2F 00236000
         OI    SDWADPF2-SDWA(1),SDWADVS3   INDICATE RANGES ARE IN       00237000
*                                          SDWADSR             @G382P2F 00238000
         SLR   14,14                ZERO LENGTH REG            @G382P2F 00239000
         AIF   ('&SYSASCE' EQ 'P').NOAR13                               00240000
         LAM   0,0,32(15)           GET ALET                       @L2A 00241000
.NOAR13  ANOP                                                           00242000
         TM    2(15),X'80'          TEST MAX NUMBER OF RANGES  @G382P2F 00243000
         L     15,16(,15) .            ACCESS POINTER TO STORAGE LIST   00244000
         AIF   ('&SYSASCE' EQ 'P').NOAR14                               00245000
         CPYA  15,0                 SET ACCESS REGISTER            @L2A 00246000
.NOAR14  ANOP                                                           00247000
         BO    K&SYSNDX            BRANCH IF 30 RANGES ALLOWED @G382P2F 00248000
         LA    0,32                 INIT MAX LENGTH TO 4       @G382P2F 00249000
         B     L&SYSNDX                                        @G382P2F 00250000
K&SYSNDX EQU   *                                               @G382P2F 00251000
         LA    0,240                INIT MAX LENGTH TO 30      @G382P2F 00252000
L&SYSNDX EQU   *                                               @G382P2F 00253000
N&SYSNDX EQU   *                    TOP OF LOOP WHICH CALCULATES        00254000
*                                   MVC LENGTH                 @G382P2F 00255000
         LA    14,8(,14)            INCREMENT LENGTH REG BY 8  @G382P2F 00256000
         TM    4(15),X'80'          TEST IF END OF LIST        @G382P2F 00257000
         LA    15,8(,15)            POINT TO NEXT RANGE        @G382P2F 00258000
         BO    O&SYSNDX             BRANCH IF END OF LIST      @G382P2F 00259000
         CR    14,0                 TEST IF MAX LENGTH REACHED @G382P2F 00260000
         BL    N&SYSNDX             BRANCH IF NOT REACHED      @G382P2F 00261000
O&SYSNDX EQU   *                    EXIT OF LOOP WHICH CALC MVC         00262000
*                                   LENGTH                     @G382P2F 00263000
         SR    15,14                POINT TO BEGINNING OF STORAGE       00264000
*                                   LIST                       @G382P2F 00265000
         BCTR  14,0                 ADJUST LENGTH FOR EXECUTE FORM      00266000
*                                   OF MVC                     @G382P2F 00267000
         LR    0,1                  SAVE SDWA ADDRESS          @G382P2F 00268000
         L     1,SDWAXPAD-SDWA(0,1) ADDRESS OF EXTENSION PTRS  @G382P2F 00269000
         L     1,SDWADSRP-SDWAPTRS(0,1) ADDRESS OF DUMP STORAGE RANGE   00270000
*                                       EXTENSION              @G382P2F 00271000
         EX    14,P&SYSNDX          EXECUTE MVC INSTRUCTION    @G382P2F 00272000
         LA    15,3                 LOAD 3 INTO REG 15         @G382P2F 00273000
         SR    14,15                CALC LENGTH TO LAST ADDR   @G382P2F 00274000
         AR    1,14                 CALC ADDR OF LAST ADDR MOVED INTO   00275000
*                                   THE SDWA                   @G382P2F 00276000
         OI    0(1),X'80'           ENSURE LAST RANGE IS IND   @G382P2F 00277000
         LR    1,0                  RESTORE REG 1 WITH SDWA             00278000
*                                   ADDRESS                    @G382P2F 00279000
         B     E&SYSNDX                                        @G382P2F 00280000
P&SYSNDX EQU   *                                               @G382P2F 00281000
         MVC   0(0,1),0(15)         MOVE DUMP STORAGE RANGES INTO       00282000
*                                   SDWA EXTENSION             @G382P2F 00283000
E&SYSNDX EQU  *                                                         00284000
         AIF  ('&DUMPOPT'(1,1) EQ '(').SBPLR                 @G860P1C   00285000
         &LA  15,&DUMPOPT(1) .      ACCESS PTR TO DUMP PARMS     @L2C   00286000
         AGO  .SBPLCOM                                       @G860P1C   00287000
.SBPLR   ANOP                                                @G860P1C   00288000
         LR   15,&DUMPOPT(1)        ACCESS PTR TO DUMP PARMS @G860P1C   00289000
         AIF  ('&SYSASCE' EQ 'P').SBPLCOM                               00290000
         CPYA 15,&DUMPOPT(1)        GET ITS ALET TOO                    00291000
.SBPLCOM ANOP                                                @G860P1C   00292000
Q&SYSNDX EQU  *                                              @G860P1C   00293000
         TM   2(15),X'02'           TEST FOR SUBPOOL LIST    @G860P1C   00294000
         BZ   U&SYSNDX              BRANCH IF NO SUBPOOL     @ZMC3083   00295000
*                                   LIST SPECIFIED           @ZMC3083   00296000
         SR   14,14                ZERO REGISTER FOR COMPARE @G860P1C   00297000
         CL   14,24(0,15)           FURTHER TEST FOR SUBPOOL LIST       00298000
*                                                            @ZMC2078   00299000
         BE   U&SYSNDX             BRANCH IF NO SUBPOOL LIST @G860P1C   00300000
V&SYSNDX EQU  *                                              @G860P1C   00301000
         L    14,SDWAXPAD-SDWA(0,1)  ADDR OF EXTENSION PTRS  @G860P1C   00302000
         AIF   ('&SYSASCE' EQ 'P').NOAR2                           @L2A 00303000
         CPYA  14,1                   SET UP ALET OF EXTENSION     @L2A 00304000
.NOAR2   ANOP                                                      @L2A 00305000
         L    14,SDWAXSPL-SDWAPTRS(0,14)  ADDR OF SUBPOOL LIST          00306000
*                                         EXTENSION          @G860P1C   00307000
         LTR  14,14                TEST IF EXTENSION EXISTS  @G860P1C   00308000
         BZ   U&SYSNDX             BRANCH IF NO SUBPOOL LIST            00309000
*                                  EXTENSION                 @G860P1C   00310000
         OI   SDWADPF2-SDWA(1),SDWASUBL  TURN ON SUBPOOL LIST           00311000
*                                        FLAG                @G860P1C   00312000
         AIF   ('&SYSASCE' EQ 'P').NOAR15                               00313000
         LAM   14,14,40(15)         GET ALET                       @L2A 00314000
.NOAR15  ANOP                                                           00315000
         L    15,24(0,15)          ACCESS POINTER TO SUBPOOL LIST      *00316000
                                                             @ZMC2078   00317000
         AIF   ('&SYSASCE' EQ 'P').NOAR16                               00318000
         CPYA  15,14                SET ACCESS REGISTER            @L2A 00319000
.NOAR16  ANOP                                                           00320000
         LH   14,0(,15)           PICK UP NUMBER OF SUBPOOLS @G860P1C   00321000
         LTR  14,14               TEST FOR ZERO              @G860P1C   00322000
         BNP  U&SYSNDX            BRANCH IF NO SUBPOOLS      @ZMC3083   00323000
         LA   0,SDWASPMX(0,0)     GET MAX NUMBER SUBPOOLS    @G860P1C   00324000
         CR   14,0                TEST FOR MAX SUBPOOLS      @G860P1C   00325000
         BNH  S&SYSNDX            BRANCH IF EQUAL OR LESS    @G860P1C   00326000
         LR   14,0                MOVE ONLY MAX SUBPOOL IDS  @G860P1C   00327000
S&SYSNDX EQU  *                                              @G860P1C   00328000
         LR   0,1                 SAVE SDWA ADDRESS          @G860P1C   00329000
         L    1,SDWAXPAD-SDWA(0,1)  ADDR OF EXTENSION POINTERS          00330000
*                                                            @G860P1C   00331000
         L    1,SDWAXSPL-SDWAPTRS(0,1)  ADDR OF SUBPOOL LIST            00332000
*                                       EXTENSION            @G860P1C   00333000
         STH  14,SDWASPLN-SDWANRC2(0,1)  STORE NUMBER OF SUBPOOLS       00334000
*                                                            @G860P1C   00335000
         SLL  14,1                  DOUBLE NUMBER TO GET LENGTH         00336000
*                                   OF MOVE                  @G860P1C   00337000
         BCTR  14,0                 ADJUST LENGTH FOR EXECUTE FORM      00338000
*                                   OF MVC                     @G860P1C 00339000
         EX   14,T&SYSNDX           MOVE THE SUBPOOL IDS     @G860P1C   00340000
         LR   1,0                   RESTORE REG1 WITH SDWA ADDRESS      00341000
*                                                            @G860P1C   00342000
         B    U&SYSNDX                                       @G860P1C   00343000
T&SYSNDX EQU  *                                              @G860P1C   00344000
         MVC  SDWASPLS-SDWANRC2(0,1),2(15)  MOVE SUBPOOL IDS INTO       00345000
*                                           SDWA EXTENSION   @G860P1C   00346000
U&SYSNDX EQU  *                                              @G860P1C   00347000
         AGO   .RETREGS                                                 00348000
.TDOPTS  ANOP                                                           00349000
         AIF   ('&DUMPOPT' NE '').ERR8                                  00350000
         AIF   ('&DUMPOPX' NE '').ERR8                             @L4A 00351000
         NI    SDWACMPF-SDWA(1),X'FF'-SDWAREQ TURN OFF DUMP INDICATOR   00352000
.TDUMPOP ANOP                                                           00353000
         AIF   ('&DUMPOPT' NE '').ERR8                                  00354000
         AIF   ('&DUMPOPX' NE '').ERR8                             @L4A 00355000
.RETREGS ANOP                                                           00356000
         AIF   ('&RETREGS' EQ '' OR '&RETREGS' EQ 'NO').TSTRUB          00357000
         AIF   ('&RETREGS' NE 'YES').ERR9                               00358000
         OI    SDWAACF2-SDWA(1),SDWAUPRG   TURN ON RETREGS INDICATOR    00359000
         AIF   ('&RUB' EQ '').CPU                                       00360000
         AIF   ('&RUB'(1,1) EQ '(').RUBR                                00361000
         &LA   15,&RUB(1) .       GET PTR TO REGISTER UPDATE BLOCK @L2C 00362000
         AGO   .RUBCOM                                                  00363000
.RUBR    ANOP                                                           00364000
         LR    15,&RUB(1) .         ACCESS PTR TO REG UPDATE BLOCK      00365000
         AIF  ('&SYSASCE' EQ 'P').RUBCOM                                00366000
         CPYA 15,&RUB(1)            GET ITS ALET TOO                    00367000