         MACRO                                                          00050000
&NAME    SETT  &MSEC                                                    00100000
.*                                                                      00150000
         AGO   .ZZZ                                                     00200000
*********************************************************************** 00250000
*                                                                     * 00300000
*        THIS MACRO IS "RESTRICTED MATERIALS OF IBM"                  * 00350000
*        5686-007 (C) COPYRIGHT IBM CORP. 1977,1988                   * 00400000
*        ALL RIGHTS RESERVED                                          * 00450000
*        LICENSED MATERIALS - PROGRAM PROPERTY OF IBM                 * 00500000
.*       SEE COPYRIGHT INSTRUCTIONS, G120-2083                        * 00550000
*                                                                     * 00600000
*********************************************************************** 00650000
.ZZZ ANOP                                                               00700000
.* /* START OF SPECIFICATIONS ***************************************** 00750000
.*                                                                      00800000
.*01* MODULE-TYPE = MACRO                                               00850000
.*                                                                      00900000
.*01* DESCRIPTIVE NAME = SET TASK TIMER                                 00950000
.*                                                                      01000000
.*01* NOTES = CHANGE ACTIVITY                                           01050000
.*    CHANGE DESCRIPTIONS                                               01100000
.*    NEW MODULE - FIRST RELEASE 33                            @D33PAFG 01150000
.**** END OF SPECIFICATIONS ***************************************** / 01200000
         AIF   ('&MSEC' EQ '').NS                                       01250000
&NAME    DS    0H                                                       01300000
         AIF   ('&MSEC'(1,1) EQ '(').SR                                 01350000
         L     1,=A(&MSEC)        TTIME TIMER VALUE                     01400000
         AGO   .NR                                                      01450000
.SR      ANOP                                                           01500000
         AIF   ('&MSEC'(2,2) EQ '1)').NR                                01550000
         LR    1,&MSEC(1)         TTIME TIMER VALUE                     01600000
.NR      ANOP                                                           01650000
         SVC   80                                                       01700000
         MEXIT                                                          01750000
.NS      ANOP                                                           01800000
         MNOTE 6,'NO TIME SPECIFIED - MACRO IGNORED'                    01850000
         MEND                                                           01900000
