         MACRO                                                          00050000
&NAME    SKIPHCF &DUMP=NO                                               00100000
         LCLA  &AL1                                                     00150000
*                                                                       00192861
*        SUPERVISOR - SKIPHCF - 5686-066-06                    @D61CDUG 00235661
         AGO   .NOCOPY                                         @D61CDUG 00278461
.*                                                                      00321261
*********************************************************************** 00364061
*                                                                       00406861
*        LICENSED MATERIALS - PROPERTY OF IBM                  @D61CDUG 00449661
*        "RESTRICTED MATERIALS OF IBM"                         @D61CDUG 00492461
*        5686-066 (C) COPYRIGHT IBM CORP. 1980, 1994           @D61CDUG 00535261
*                                                                       00578061
*********************************************************************** 00620861
.NOCOPY  ANOP                                                  @D61CDUG 00663661
.*                                                             @D61CDUG 00706461
.* /* START OF SPECIFICATIONS ***************************************** 00750000
.*                                                                      00800000
.*01* MODULE NAME = SKIPHCF                                             00850000
.*                                                                      00900000
.*01* MODULE TYPE = HARD COPY FILE COMMUNICATION MACRO                  00950000
.*                                                                      01000000
.*01* DESCRIPTIVE NAME = SKIP RECORDS ON HARD COPY FILE                 01050000
.*                                                                      01100000
.*01* NOTES = NEW MODULE FOR DOS /VSE AF 1.3                            01150000
.*              HARD COPY FILE SUPPORT                                  01200000
.*                                                                      01250000
.*01* CHANGE ACTIVITIES = AS FOLLOWS                                    01300000
.*             BLOCKED HARD COPY FILE                          @D37ADRP 01350000
.*A000000-999999                                               @D37ADRP 01400000
.*                                                                      01450000
.* /* END OF SPECIFICATION ******************************************** 01500000
.*                                                                      01550000
.*   R2=40 INDICATION FOR SKIPHCF SERVICE WITH COUNT                    01600000
.*   R2=44 INDICATION FOR SKIPHCF SERVICE WITH EOF                      01650000
.*                                                                      01700000
         AIF   (N'&SYSLIST NE 2).ERR                                    01750000
&NAME    DS    0H                                                       01800000
         AIF   ('&SYSLIST(1)'(1,1) NE '(').ERR                          01850000
         AIF   ('&SYSLIST(1)'(2,2) EQ '1)').GENOP2                      01900000
         LR    1,&SYSLIST(1,1)    GET ADDR OF HCFCB                     01950000
.GENOP2  ANOP                                                           02000000
&AL1     SETA  40                 INDICATE SKIP WITH COUNT              02050000
         AIF   ('&SYSLIST(2)'(1,1) EQ '(').R2                           02100000
         AIF   ('&SYSLIST(2)'  NE 'EOF').NOEOF                          02150000
&AL1     SETA  44                 INDICATE SKIP WITH EOF                02200000
         AGO   .GENBAL                                                  02250000
.NOEOF   ANOP                                                           02300000
         LH    0,&SYSLIST(2)      GET AMOUNT TO SKIP                    02350000
         AGO   .GENBAL                                                  02400000
.R2      ANOP                                                           02450000
         AIF   ('&SYSLIST(2)'(2,2) EQ '0)').GENBAL                      02500000
         LR    0,&SYSLIST(2,1)    GET AMOUNT TO SKIP                    02550000
.GENBAL  ANOP                                                           02600000
         AIF   ('&DUMP' EQ 'YES').DMP                                   02650000
         ASYSCOM 2                                                      02700000
         ICM   2,7,X'35'(2)       GET 24 BIT ADDR OF CRTTAB    @D61CDUG 02750061
         L     15,X'24'(2)        GET ENTRY POINT ADDR                  02800000
         AGO   .NODMP                                                   02850000
.DMP     ANOP                                                           02900000
         L     15,ACONTROL        GET ENTRY POINT ADDR                  02950000
.NODMP   ANOP                                                           03000000
         LA    2,&AL1             INDICATE SKIP                         03050000
         BALR  14,15              INVOKE SKIPHCF SERVICE                03100061
         MEXIT                                                          03150000
.ERR     MNOTE 5,'INCORRECT POS. OPERANDS SPECIFIED IN SKIPHCF MACRO IN*03200000
               STRUCTION, GENERATION TERMINATED'                        03250000
         MEND                                                           03300000
