*%GOTO PLSDCT;                       /* ASSEMBLER MACRO IN COMMENT      00010002
         MACRO                                                          00020002
&NAME    SLADCT &SYSONLY=NO                                             00030002
.*        IBM DISK OPERATING SYSTEM                                     00040002
*         JOB CONTROL - SLADCT                                          00050002
.* MACRO NAME: SLADCT                                                   00060002
.*                                                                      00070002
         AGO   .ZZZ                                            @D51IDHB 00080002
*        LICENSED MATERIALS - PROPERTY OF IBM                  @D51IDHB 00090002
*        THIS MACRO IS "RESTRICTED MATERIALS OF IBM"           @D51IDHB 00100002
*        5686-066 (C) COPYRIGHT IBM CORP. 1977, 1996           @D61YDFM 00110002
*        SEE COPYRIGHT INSTRUCTION                             @D51IDHB 00120002
.ZZZ     ANOP                                                  @D51IDHB 00130002
.* DESCRIPTIVE NAME: MAPPING MACRO FOR SLA CONTROL BLOCK                00140002
.*                                                                      00150002
.* STATUS: VERSION 5,  RELEASE 1.0                             @D51IDHB 00160002
.*                                                                      00170002
.* FUNCTION:                                                            00180002
.*     BY CALLING SLADCT A DUMMY SECTION IS CREATED WHICH               00190002
.*     MAPS AN SLA CONTROL BLOCK WITH SYSTEM DIRECTORY INFORMATION.     00200002
.*     IN ADDITION A DUMMY SECTION IS CREATED WHICH MAPS       @D14NDWS 00210002
.*     THE JOB CONTROL WORKAREAS PER PARTITION IN THE SVA.     @D14NDWS 00220002
.*     THE FIELD IJBSLACB IN SYSCOM IS POINTING TO THE CONTROL BLOCK.   00230002
.*     THE FIELD IJBJCWA IN THE COMRG OF EACH PARTITION POINTS @D14NDWS 00240002
.*     TO THE APPROPRIATE PARTITION WORK AREA.                 @D14NDWS 00250002
.*     THIS MACRO PROVIDES A BILANGUAL MAPPING FOR PLS/2 AND ASSEM.     00260002
.*                                                                      00270002
.* DEPENDENCIES: LAYOUT OF SYSTEM DIRECTORY INFORMATION                 00280002
.*                                                                      00290002
.* RESRICTIONS: NONE                                                    00300002
.*                                                                      00310002
.* INPUT:                                                               00320002
.*     NONE                                                             00330002
.*                                                                      00340002
.* OUTPUT: DECLARATIONS OF DUMMY SECTIONS IN ASSEMBLER RESP. PLS/2      00350002
.*                                                                      00360002
.* CHANGE ACTIVITY:                                                     00370002
.* ALLOW IPL TO SAVE CONFIGURATION BYTES FOR JOB SET SDL STMNT @D21LDWS 00380002
.* SPE DY37265                                                 @D21LDWS 00390002
.* DYNAMIC PARTITIONS (WORK AREA LAYOUT CHANGE)                @D51IDHB 00400002
.* INTEGRATION OF SA FUNCTION                                  @D61DDWS 00410002
.* PROBLEM DETERMINATION ENHANCEMENTS                          @D61HDWS 00420002
.* REXX STAGE II SUPPORT                                       @D61IDWS 00430002
.* LE REQUIREMENT: INCREASE EXEC PARM='...' FROM 100 TO 300    @D61YDFM 00440002
.* INTRODUCE SYSONLY=PARM TO AVOID DOUBLE-DEFINED SYMBOLS      @D63JDFM 00450002
.* INCREASE JCWASLA SO THAT IJBXMPPA DUMPS THE WHOLE 8K AREA   @D67UDFM 00451008
.* A000000-999999                                              @D35DDWH 00460002
.********************************************************************** 00470002
SLADCT   DSECT                SLA CONTROL BLOCK, ADDR IN IJBSLACB       00480002
SLADCFBA DS    0F             DSECT IF FBA                              00490002
SLARESVD DS    CL12           RESERVED                         @D21LDWS 00500002
SLALBFBA DS    0F             LOCATION OF LABEL AREA FOR FBA:           00510002
SLALBPBS DS    F              ** PYSICAL BLOCK START OF LABEL AREA      00520002
SLALBLBS DS    F              ** LOGICAL BLOCK START OF LABEL AREA      00530002
SLALBLBE DS    F              ** LOGICAL BLOCK END OF LABEL AREA        00540002
SLACONFG DS    F              CONFIG. BYTES (USED BY SET SDL)  @D21LDWS 00550002
SLAOPART DS    H              NUMBER OF PARTIT. FROM LAST IPL           00560002
SLACUU   DS    H              CUU OF LABEL AREA DEVICE         @D36HDWS 00570002
SLASVN   DS    CL8            SUPERVISOR NAME (USED BY MAP COM @D37ZDWS 00580002
SLAAPL   DS    F              ADDR. OF DYN. DEVICE ASSIGN AREA @D61DDWS 00590002
SLAALET  DS    F              RESERVED                         @D61DDWS 00600002
SLAORIG  DS    F              RESERVED                         @D61DDWS 00610002
SLASWTCH DS    C                                               @D61DDWS 00620002
SLAINI   EQU   X'80'          ON IF SLA IS INITIALIZED         @D61DDWS 00630002
SLAVIR   EQU   X'40'          RESERVED                         @D61DDWS 00640002
         DS    3C             RESERVED                         @D61DDWS 00650002
SLADCTLN EQU   *-SLADCT       OBTAIN LENGTH OF DSECT           @D21LDWS 00660002
         ORG   SLADCT         DSECT IF CKD                     @DA32403 00670002
SLADCCKD EQU   *                                               @DA32404 00680002
         DS    CL12           RESERVED                         @D21LDWS 00690002
SLALBCKD DS    0H             LOCATION OF LABEL AREA FOR CKD:           00700002
SLANLCYL DS    H              ** NUMBER OF LABEL CYLINDERS              00710002
SLAADCYL DS    H              ** ADDRESS OF LABEL CYLINDER              00720002
         AIF   ('&SYSONLY' EQ 'YES').TERM                      @D21LDWS 00730002
         SPACE 2                                                        00740002
* MAPPING OF PARTITION WORK AREA (LENGTH <= 8K)                @D51IDHB 00750002
MAPJCWA  DSECT                ADDR IN IJBJCWA                  @D14NDWS 00760002
JCWAREG  DS    18F            SAVE REGS.WHEN CALLING JOB STEP  @D14NDWS 00770002
JCWARCJS DS    20F            SAVEAREA REGS.AND RC OF STEP     @D14NDWS 00780002
JCWAINVP DS    126F           INVPART WORK AREA                @D14NDWS 00790002
JCWPRPT  DS    F              POINTER TO WORKAREA OF IJBPROC   @D51IDHB 00800002
         DS    F              RESERVED FOR DOUBLE WORD BOUNDRY @D51IDHB 00810002
CJCTBLE  DS    128F           WORKAREA OF IJBCJC               @D51IDHB 00820002
JCWDREG  DS    18F            SAVE REGS. WHEN CALLED BY DUMP   @D61HDWS 00830002
* PARM FIELDS MUST STAY TOGETHER AND BEGIN ON FULLWORD BOUNDARY@D61IDWS 00840002
* LANGUAGE ENVIRONMENT (LE) REQUESTED TO SPECIFY MORE THAN 100 @D61YDFM 00850002
* CHARACTERS WITH THE PARM OPERAND OF THE EXEC STATEMENT       @D61YDFM 00860002
JCWPARM  DS    0CL306         PARAMETER SAVE AREA              @D61YDFM 00870002
JCWPADD  DS    F              PARAMETER ADDRESS                @D61IDWS 00880002
JCWPARML DS    H              PARAMETER LENGTH                 @D61IDWS 00890002
JCWPARMB DS    CL300          PARAMETER ITSELF                 @D61YDFM 00900002
         DS    CL2            RESERVED FOR FULL WORD BOUNDRY   @D66GDFM 00910003
* END OF PARM FIELDS                                           @D61IDWS 00920002
         AIF   ('&SYSONLY' EQ 'PARM').TERM                     @D63JDFM 00930002
         SYSSERV ID=EQUCPGM                                    @D61HDWS 00940002
JCWASLA  DS    1654F          PARTITION WORKAREA OF SLA        @D67UDFM 00950008
JCWALEN  EQU   *-MAPJCWA      MUST BE X'2000' !!!              @D67UDFM 00951008
.TERM    ANOP                                                  @D21LDWS 00960002
         MEND                 */                                        00970002
*%PLSDCT:;                                                              00980002
*/* JOB CONTROL - SLADCT                                             */ 00990002
*/********************************************************************/ 01000002
*/*                                                          @D51IDHB*/ 01010002
*/*   LICENSED MATERIALS - PROPERTY OF IBM                   @D51IDHB*/ 01020002
*/*   THIS MACRO IS "RESTRICTED MATERIALS OF IBM"            @D51IDHB*/ 01030002
*/*   5686-032 (C) COPYRIGHT IBM CORP. 1977, 1990            @D51IDHB*/ 01040002
*/*   SEE COPYRIGHT INSTRUCTIONS                             @D51IDHB*/ 01050002
*/*                                                          @D51IDHB*/ 01060002
*/********************************************************************/ 01070002
* DCL 1 SLADCT BASED,         /* SLA CONTROL BLOCK, ADDR IN IJBSLACB */ 01080002
*      2 SLADCFBA CHAR(56),   /* SLA CONTROL BLOCK FOR FBA           */ 01090002
*       3 SLARESVD CHAR(12),  /* RESERVED                    @D21LDWS*/ 01100002
*       3 SLALBFBA CHAR(12),  /** LOCATION OF LABEL AREA ON FBA      */ 01110002
*         4 SLALBPBS CHAR(4), /*** PHYSICAL BLOCK NUMBER START       */ 01120002
*         4 SLALBLBS CHAR(4), /*** LOGICAL BLOCK NUMBER START        */ 01130002
*         4 SLALBLBE CHAR(4), /*** LOGICAL BLOCK NUMBER END          */ 01140002
*       3 * CHAR(8),                                                    01150002
*         4 SLACONFG CHAR(4), /* CONFIG. (USED BY SET SDL)   @D21LDWS*/ 01160002
*         4 SLAOPART CHAR(2), /* NUMBER OF PARTIT. FROM LAST IPL     */ 01170002
*         4 SLACUU CHAR(2),   /* CUU OF LABEL AREA DEVICE    @D36HDWS*/ 01180002
*       3 SLASVN CHAR(8),     /* SUPERVISOR NAME (MAP COM.)  @D37ZDWS*/ 01190002
*       3 SLAAPL CHAR(4),     /* ADDR. OF AREA FOR DYNAMIC              01200002
*                               DEVICE ASSIGN PARAMETER LIST @D61DDWS*/ 01210002
*       3 SLAALET CHAR(4),    /* RESERVED                    @D61DDWS*/ 01220002
*       3 SLAORIG CHAR(4),    /* RESERVED                    @D61DDWS*/ 01230002
*       3 SLASWTCH BIT(8),    /*                             @D61DDWS*/ 01240002
*         4 SLAINI BIT(1),    /* ON IF SLA IS INITIALIZED    @D61DDWS*/ 01250002
*         4 SLAVIR BIT(1),    /* RESERVED                    @D61DDWS*/ 01260002
*         4 *      BIT(6),    /* RESERVED                    @D61DDWS*/ 01270002
*       3 *       CHAR(3);    /* RESERVED                    @D61DDWS*/ 01280002
* DCL 1 SLADCCKD DEFINED(SLADCT),  /* SLA CONTROL BLOCK FOR CKD      */ 01290002
*       2 *       CHAR(12),   /* RESERVED                    @D21LDWS*/ 01300002
*       2 SLALBCKD CHAR(4),   /** LOCATION OF LABEL AREA ON CKD      */ 01310002
*         3 SLANLCYL CHAR(2), /*** NUMBER OF LABEL CYLINDERS         */ 01320002
*         3 SLALBCYL CHAR(2); /*** ADDRESS OF LABEL CYLINDER         */ 01330002
*/* MAPPING OF PARTITION WORK AREA (LENGTH <= 8K)            @D51IDHB*/ 01340002
* DCL 1 MAPJCWA BASED(IJBJCWA) BDY(DWORD),                              01350002
*                                  /* ON IJBJCWA IN COMREG   @D51IDHB*/ 01360002
*      2 JCWAREG  CHAR(72),   /* SAVE REGS WHEN CALLING STEP @D14NDWS*/ 01370002
*      2 JCWARCJS CHAR(80),   /* SAVEAREA REGS.AND RC OF STEP@D14NDWS*/ 01380002
*      2 JCWAINVP CHAR(504),  /* INVPART WORKAREA            @D51IDHB*/ 01390002
*      2 JCWTEMP  CHAR(520) BDY(WORD), /*                    @D51IDHB*/ 01400002
*      3 JCWPRPT  POINTER,    /* WORK AREA ADDRESS OF IJBPROC@D51IDHB*/ 01410002
*      3 *        FIXED(32),  /* RESERVED TO STAY ON DWORD   @D51IDHB*/ 01420002
*      3 CJCTBLE  CHAR(512),  /* WORK AREA OF IJBCJC         @D51IDHB*/ 01430002
*      2 JCWDREG  CHAR(72) BDY(DWORD), /* TO SAVE DUMP REGS. @D61HDWS*/ 01440002
*      2 JCWPARM  CHAR(306) BDY(DWORD),/* PARAMETER SAVE AREA@D61YDFM*/ 01450002
*       3 JCWPADD POINTER,    /*  PARAMETER ADDRESS          @D61IDWS*/ 01460002
*       3 JCWPARML FIXED(16), /*  PARAMETER LENGTH           @D61IDWS*/ 01470002
*       3 JCWPARMB CHAR(300), /*  PARAMETER ITSELF           @D61YDFM*/ 01480002
*      2 *         CHAR(2),   /* RESERVED TO STAY ON FWORD   @D66GDFM*/ 01490003
*%INCLUDE SYSLIB(SYSSERV);    /*                             @D61HDWS*/ 01500002
*      2 JCWASLA CHAR(6616) BOUNDARY(DWORD);                            01510004
*                             /* PARTITION WORKAREA OF SLA   @D67UDFM*/ 01520008
*/* END OF MAPPING MACRO                                             */ 01530002
