*%GOTO  MSYSCOM; /*PLS COMMENT TO AVOID UNMATCHED QUOTE PROBLEMS        00001000
         MACRO                                                          00002000
&NAME    SYSCOM                                                         00003000
.*       IBM DISK OPERATING SYSTEM                                      00004000
*        SUPERVISOR - SYSCOM - 5686-CF7-06                              00005000
         GBLB  &IJBSGEN                                                 00006000
         AGO   .ZZZ                                                     00007000
*        LICENSED MATERIALS - PROPERTY OF IBM                           00008000
*        "RESTRICTED MATERIALS OF IBM"                                  00009000
*        5686-CF7                                                       00010000
*        (C) COPYRIGHT IBM CORP. 1979, 2004                             00011000
.ZZZ     ANOP                                                           00012000
         AIF   (&IJBSGEN).NODSECT                                       00013000
&NAME    DSECT                                                          00014000
         AGO   .NODSCT1                                                 00015000
.NODSECT ANOP                                                           00016000
&NAME    DS    0F                                                       00017000
.NODSCT1 ANOP                                                           00018000
         SPACE 1                                                        00019000
* * * * * * * * * * * * * * * * * * * * * * * * * * * * * * * * * * * * 00020000
*        SYSTEM COMMUNICATION REGION DSECT                            * 00021000
* * * * * * * * * * * * * * * * * * * * * * * * * * * * * * * * * * * * 00022000
         SPACE 1                                                        00023000
IJBSYSBG DS    0F                                              @D68CDOW 00024000
IJBERBLC DS    F                  ADDRESS OF ERROR BLOCK                00025000
IJBHWC   DS    F                  HARD WAIT CODE               @D36ZDEM 00026000
         DS    F                  EXIT FOR ERP MESSAGE WRITER  @D369DEM 00027000
.* LABEL IJBERR19 REMOVED                                      @D51XDMZ 00028000
IJBPUBRS DS    F                  ADDRESS OF SYSRES PUB                 00029000
IJBPUBLF DS    F                  ADDRESS OF LOCK DEVICE       @D66ADAP 00030000
IJBSPAVT DS    F                  ADDR OF SUPERV. ADDR VECTOR  @D14NDFG 00031000
IJBPTCOM DS    F                  ADDRESS OF VSE/PT COMM.AREA  @D14CDFG 00032000
IJBLTA   DS    F                  ADDRESS OF LOGICAL TRANSIENT AREA     00033000
IJBSABLK DS    F                  NO OF LAST BLOCK (SET BY IPL)@D61DDMZ 00034000
IJBFLPTR EQU   *                  FREE LIST POINTER                     00035000
IJBCHANQ DS    F                  ADDRESS OF CHANNEL QUEUE              00036000
IJBQSIZE DS    H                  NUMBER OF CHANNEL QUEUE ENTRIES       00037000
IJBQLNG  DS    H                  LENGTH OF ONE ERROR QUEUE ENTRY       00038000
IJBNPART DS    H                  NUMBER OF PARTITIONS                  00039000
IJBFLG05 DS    X                  FLAGS AND SWITCHES           @D34UDEM 00040000
IJBAF    EQU   X'80'              AF-VERSION                   @D35ZDEM 00041000
TPBINACT EQU   X'20'              TBPAL NOT ACTIVE             @D52VDMZ 00042000
IJBVESA  EQU   X'04'              VERSION INDICATOR            @D51IDMZ 00043000
IJBCSCDS EQU   X'02'              CS AND CDS SUPPORTED         @D14ADFG 00044000
IJBSIPOF EQU   X'01'              SIPO FORMAT FLAG             @D14CDFG 00045000
IJBFLG06 DS    X                  FLAGS FOR IPL                @D34YDEM 00046000
IJBEMODE EQU   X'80'              VM/VMESA MODE                @D35EDEM 00047000
IJBXMODE EQU   X'40'              XA HARDWARE                  @D51GDMZ 00048000
IJBAREGE EQU   X'20'              ACC REG ENABLED              @D64ADMZ 00049000
IJBAMODE EQU   X'10'              ESA HARDWARE                 @D51KDTP 00050000
IJBCKD   EQU   X'04'              DISK SUPPORT FOR CKD         @D35EDEM 00051000
IJBFBA   EQU   X'02'              DISK SUPPORT FOR FBA         @D35EDEM 00052000
IJB3800  EQU   X'01'              SUPPORT FOR 3800 INCLUDED    @D35EDEM 00053000
IJBVSIZE DS    F                  TOTAL VIRTUAL STORAGE SIZE   @D14NDFG 00054000
IJBCONSP DS    F                  ADDRESS OF CONSOLE COMREG    @D61NDMZ 00055000
IJBOCFCM DS    F                  POINTER TO OCCF COM.REGION   @D37CDEM 00056000
IJBVIOCM DS    F                  ADDRESS OF VIO COMMUN.AREA   @D14BDFG 00057000
IJBFLG01 DS    X                  FLAGS AND SWITCHES                    00058000
IJBRMSR  EQU   X'80'              RMSR SUPPORTED (CHAN/RMS=YES)@D35EDEM 00059000
IJBRMS   EQU   X'40'              RMS SUPPORTED (RMS=YES)      @D35EDEM 00060000
*        EQU   X'20'              RESERVED,MUST BE 0           @D35EDEM 00061000
IJBITDWN EQU   X'01'                IT-SUPPORT DOWN            @D35EDOW 00062000
IJBFLG02 DS    X                  FLAGS AND SWITCHES                    00063000
SCSIACT  EQU   X'80'                0  SCSI REQUEST ACTIVE     @D68CDOW 00064000
IJBJA    EQU   X'40'                1  SYS OPTION JA=YES       @D14BDFG 00065000
IJBDSDFP EQU   X'20'                2  SYS OPTION DASDFP=YES   @D14BDFG 00066000
IJBSEC   EQU   X'10'                3  SYS OPTION SEC=YES      @D14BDFG 00067000
IJBNOUNL EQU   X'08'                4  TAPE REWIND=UNLOAD      @D21LDAP 00068000
*        EQU   X'04'                5  SCHED.ENTERED AFTER INT.@D149DFG 00069000
*IJBMPXGT EQU  X'02'  NO LONGER SET:6  BYTE MPX CHANNEL GATING @D66HDAV 00070000
IJBIPLAC EQU   X'01'                7  IPL ACTIVE              @D14ZDFG 00071000
IJBFLG03 DS    X                  FLAGS AND SWITCHES                    00072000
IJBIPLV  EQU   X'10'                3  VIRT.STORAGE INITIALIZED@D14BDFG 00073000
IJBPOWA  EQU   X'04'                5  POWER ACTIVE            @D31LDMZ 00074000
IJBIPLAT EQU   X'01'                7  ATTENTION AT IPL        @D52VDMZ 00075000
IJBFLG04 DS    X                  FLAGS AND SWITCHES                    00076000
IJBVMBTM EQU   X'10'                3  BTAM CCW MODIFICAT.FLAG @D14NDFG 00077000
IJBVMCF  EQU   X'04'                5  VMCF SUPPORT            @D51IDMZ 00078000
IJBVMLE  EQU   X'01'                7  VM MODE                 @D14NDFG 00079000
IJBHSTID DS    H                  HIGHEST SYSTEM TASK TIK      @D14BDFG 00080000
IJBHMTID DS    H                  HIGHEST MAIN TASK TIK        @D14BDFG 00081000
IJBHPIK  DS    H                  HIGHEST VALID PIK            @D51GDMZ 00082000
*                                 (SET DEPENDING ON IPL SYS COMMAND)    00083000
IJBCONF  DS    0H                 CONFIGURATION BYTES          @D52VDMZ 00084000
IJBCONF1 DS    X                  FIRST CONF. BYTE             @D52VDMZ 00085000
IJBLPARM EQU   X'80'              LPAR MODE                    @D52VDMZ 00086000
IJBCONF2 DS    X                  2ND CONF. BYTE               @D52VDMZ 00087000
IJBPSBIT EQU   X'80'              PRIVATE SPACE BIT            @D52VDMZ 00088000
IJBTHPTR EQU   *                  TRACKHOLD FLPTR                       00089000
IJBTKHLD DS    F                  ADDRESS OF TRACKHOLD TABLE            00090000
IJBSECTC DS    F                  SECTOR CALCULATION ROUTINE   @DY45385 00091000
IJBAFCPA DS    F                  ADDR OF FCP ANCHOR TABLE     @D68DDMZ 00092000
IJBLIK   DS    H                  IDENTIFIER OF TASK EXEC.IN   @D369DEM 00093000
*                                 LTA, ELSE ZERO               @D369DEM 00094000
IJBTIK   DS    H                  IDENTIFIER OF TASK RUNNING   @D369DEM 00095000
         AIF   (NOT &IJBSGEN).NOSV10                           @D36ZDEM 00096000
         ORG   IJBTIK                                          @D36ZDEM 00097000
TID      DS    H                  IDENTIFIER OF TASK RUNNING   @D36ZDEM 00098000
.NOSV10  ANOP                                                  @D36ZDEM 00099000
IJBPWR   DS    F                  ADDRESS OF POWER TABLE                00100000
IJBTCAVT DS    F                  VTAM ADDRESS VECTOR          @D61NDMZ 00101000
IJBTCACT EQU   X'80'              ACF/VTAM ACTIVE              @D61NDMZ 00102000
IJBRFTAB DS    F                  ADDRESS OF RF TABLE                   00103000
IJBEUECB DS    F                  RESERVED                     @D359DEM 00104000
IJBOLTEP DS    0F                 ADDRESS OF OLTEP BUCKET      @D14CDJB 00105000
IJBOLTSW DS    X                  OLTEP SWITCH                 @D14CDJB 00106000
IJBOLTAC EQU   X'80'              OLTEP IS ACTIVE              @D14CDFG 00107000
IJBOLTPT DS    3X                 ADDRESS OF OLTEP BUCKET      @D14CDJB 00108000
IJBRASLN DS    F                  ADDRESS OF RAS LINKAGE AREA           00109000
IJBTRTAB DS    F                  ADDRESS OF TRANSLATE TABLE            00110000
IJBPBOWN DS    F                  ADDRESS OF PUB OWNERSHIP EXTENSION    00111000
IJBJATAB DS    F                  ADDRESS OF JA COMMON TABLE            00112000
IJBPROCT DS    F                  ADDRESS OF PROC COMMON TABLE @D14ZDFG 00113000
IJBIJBSD DS    0F                 USED BY SDAIDS               @D61RDMZ 00114000
IJBSDCUU DS    H                  SDAID OUTDEV ADDRESS         @D61RDMZ 00115000
IJBSDFL1 DS    X                  SDAID FLAG BYTE 1            @D61RDMZ 00116000
IJBSDACT EQU   X'80'              SDAID IS ACTIVE (MOVED)      @DY46379 00116500
IJBSDFL2 DS    X                  SDAID FLAG BYTE 2            @D61RDMZ 00117000
IJBSAVSD DS    F                  ADDRESS OF SDAID SAVE AREA            00119000
IJBLNSTB DS    F                  ADDRESS OF BSC LINES TABLE            00120000
IJBARBUF DS    F                  ADDR.  ATTENTION INPUT BUFFER@D35EDEM 00121000
IJBAPTA  DS    F                  ADDRESS OF PTA                        00122000
IJBNDEV  DS    H                  NUMBER OF ADDED DEVICES      @D14BDFG 00123000
IJBNSDEV DS    H                  NUMBER OF SHARABLE DEVICES   @D14BDFG 00124000
IJBVTPIK DS    H                  VTAM PIK (SET BY SUBSID)     @D14NDFG 00125000
IJBPWPIK DS    H                  POWER PIK (SET BY SUBSID)    @D14NDFG 00126000
IJBICPIK DS    H                  ICCK PIK (SET BY SUBSID)     @D14NDFG 00127000
         DS    H                  RESERVED                     @DA29533 00128000
IJBLPBDV DS    H                  PUB PTR OF PRINTER BUFF.LOAD @DA29533 00129000
IJBPHLSL DS    H                  LENGTH OF PHASE LOAD LIST    @D14BDFG 00130000
         DS    H                  RESERVED                     @D..LUAP 00131000
IJBRECDV DS    H                  CUU OF SYSREC DEVICE         @D14BDWK 00132000
IJBCATDV DS    H                  CUU OF SYSCAT DEVICE         @D14BDWK 00133000
IJBRESDV DS    H                  CUU OF SYSRES DEVICE         @D14BDWK 00134000
         DS    F                  RESERVED                     @D62NDOW 00135000
IJBSMCOM DS    F                  A(STORAGE MANAGEMNT COMAREA) @D14NDFG 00136000
IJBPMCOM DS    F                  A(PAGE MANAGEMENT COMAREA)   @D14NDFG 00137000
IJBTPBAL DS    H                  TPBALANCING INFO             @D31AUHL 00138000
         DS    H                  RESERVED                     @D62NDOW 00139000
IJBAIDAD DS    F                  ANCHOR ADDRESS FOR    VSEAID @D21LDAP 00140000
IJBAIDID DS    H                  TASK ID BEING USED BY VSEAID @D21LDAP 00141000
IJBIOFLG DS    X                  I/O PROCESSING FLAGS         @D51GDMZ 00142000
IJBIOX80 EQU   X'80'              2-BYTE CHAIN POINTER         @D51GDMZ 00143000
IJBIOX40 EQU   X'40'                                           @D51GDMZ 00144000
IJBIOX20 EQU   X'20'                                           @D51GDMZ 00145000
IJBIOX10 EQU   X'10'                                           @D51GDMZ 00146000
         DS    X                  RESERVED                     @D21LDAP 00147000
IJBOWSAV DS    H                  SYSLOG OWNERSHIP SAVE INFOR  @D31LDAP 00148000
IJBOPMOD DS    X                  CURRENT OPERATION MODE       @D31LDAP 00149000
IJBOPLOC EQU   X'80'              OPERATING LOCAL              @D31LDAP 00150000
IJBOPREM EQU   X'40'              OPERATING REMOTE             @D31LDAP 00151000
IJBOPSAC EQU   X'20'              OPERATING SELF ACTING        @D31LDAP 00152000
IJBOPCON EQU   X'08'              OPERATING CONNECT REQUEST    @D31LDAP 00153000
IJBOPEXT EQU   X'02'              FORCE OPERATING LOCAL        @D31LDAP 00154000
IJBOPDIS EQU   X'01'              OPERATING DISCONNECTED       @D31LDAP 00155000
IJBNERQ  DS    1X                 NUMBER OF ERROR QUEUE ENTRIES         00156000
IJBPUBLN DS    H                  LENGTH OF PUB TABLE                UL 00157000
IJBAPNO  DS    XL2                NUMB. OF ACTIVE VIRTUAL PARTITIONS EM 00158000
IJBATVAL DS    F                  ADDR OF TOKEN VALID. RTN     @D65ADMZ 00159000
IJBTCPSA DS    F                  TCPIP SYSTEM ANCHOR          @DY45557 00160000
IJBNPGR  DS    H                  TOTAL NUMBER OF PROGR.LUB'S  @D14BDFG 00161000
IJBGHLUB DS    H                  HIGHEST USED BG PROGR.LUB    @D14BDFG 00162000
IJBASMCB DS    F                  ADDRESS OF STORAGE MANAGEMENT        *00163000
                                  CONTROL BLOCK                @D35EDUL 00164000
IJBDPDTB DS    F                  ADDRESS OF DPD TABLE               EM 00165000
IJBOCDEV DS    H                  CHAN/UNIT OF SYSTEM'S OP.CON.@D34SDEM 00166000
IJBNTASK DS    H                  NUMBER OF SUBTASKS SUPPORTED @D36IDEM 00167000
IJBVSEMB DS    F                  VSE IO MEASUREMENT BUFFER    @DY44841 00168000
IJBEOR   DS    F                  END OF REAL STORAGE USED TO MAP VIRT. 00169000
*                                 ADDRESSES (IJBEOR<SMCPEOR)   @D52VDMZ 00170000
.* LABEL IJBFTTAB REMOVED WITH AF 5.1.0                        @D51IDMZ 00171000
         DS    F                  RESERVED (UNUSED)            @D51IDMZ 00172000
IJBSVA   DS    0F                 ADDRESS OF SVA               @D14CDJB 00173000
IJBSVAFL DS    X                  FLAG BYTE FOR SVA            @D14CDJB 00174000
IJBSVAAD DS    3X                 SVA BEGIN ADDRESS            @D14CDJB 00175000
         DS    F                  RESERVED                     @D51GDMZ 00176000
IJBARPSL DS    F                  ADDRESS OF RPS DIRECT. LIST  @DL30SSM 00177000
IJBARPSR DS    F                  ADDRESS OF SECTOR CALC ROUT. @DL30SSM 00178000
IJBRPSIS EQU   IJBARPSR           RPS INDICATORS BYTE          @DL30SSM 00179000
IJBDLAB  DS    F                  ADDRESS OF SYSTEM CODE       @D31DCAZ 00180000
         DS    F                  RESERVED                     @D61NDMZ 00181000
IJBSLACB DS    F                  ADDRESS OF SYSTEM LABEL AREA @D51GDMZ 00182000
IJBSVIPL DS    F                  ADDRESS OF IPL-SUPERVISOR    @D35EDEM 00183000
.*                COMMUNICATION REGION, ADDRESS OF TERMINATOR AFTER IPL 00184000
IJBAMSVA DS    F                  BEGINADDR.OF SVA-MODULE AREA @D35EDEM 00185000
IJBNPDA  DS    F                  ADDRESS OF NPDA APPENDAGE    @D14CDFG 00186000
IJBETSS  DS    0F                 POINTER TO ETSS VECTOR TABLE @DA33314 00187000
         DS    X                  RESERVED                     @D52VDMZ 00188000
IJBETSSA DS    3X                 POINTER TO ETSS VECTOR TABLE @DA33314 00189000
IJBSCTAB DS    F                  POINTER TO SEC. VECTOR TABLE @D35ZDEM 00190000
IJBPCSAV DS    F                  SAVEAREA FOR REG.IF PC IN SV @D35ZDEM 00191000
IJBINSTR DS    F                  PTR TO INSTRUMENTATION DATA  @D14ZDFG 00192000
IJBPLCT  DS    F                  PTR LIBRARY CONTROL TABLE    @D36JDEM 00193000
IJBLPTA  DS    H                  LENGTH OF PTA AREA           @D21LDAP 00194000
IJBLLTA  DS    H                  LENGTH OF LTA AREA           @D21LDAP 00195000
IJBUNCBP DS    F                  PTR TO UNATTENDED NODE CB    @D31LDMZ 00196000
IJBASIPR DS    CL8                ASI PROCEDURE NAME           @D31LDMZ 00197000
IJBHWCOD DS    F                  ADDRESS OF HARDWAIT ROUTINE  @@31QDMZ 00198000
IJBFLG07 DS    X                  UNATTENDED NODE FLAG BYTE    @D31LDMZ 00199000
IJBUNATT EQU   X'80'              SET BY SYS UNATT=YES         @D31LDMZ 00200000
IJBRIPRO EQU   X'40'              REIPL IN PROG. SET BY OCF,PWR@D31LDMZ 00201000
IJBPOWT  EQU   X'20'              SPECIAL PWR TERMINATION,SET/ @D31LDMZ*00202000
                                  RESET BY POWER, USED IN TSTOP@D31LDMZ 00203000
IJBAIOFF EQU   X'10'              AUTOIPL OFF SPECIFIED        @D31LDMZ 00204000
IJBAION  EQU   X'08'              AUTOIPL ON SPECIFIED         @D31LDMZ 00205000
IJBRDACC EQU   X'04'              ACCEPT READ, NO REIPL (OCCF) @D31LDGN 00206000
IJBIPORG DS    X                  HW ORIGIN USED BY REIPL ONLY @D31QDMZ 00207000
IJBHWORI DS    0XL2               HW ORIGIN.,USED BY REIPL ONLY@D31QDMZ*00208000
                                  EQUATES IN SGEND                      00209000
         DS    X                  FIRST PART OF HW ORIGINATOR  @D31LDMZ 00210000
IJBHWORG DS    X                  SECOND PART OF HW ORIGINATOR @D31QDMZ 00211000
IJBIVMCB DS    F                  PTR TO IAF   CONTROL BLOCK   @D31ZDMZ 00212000
IJBCLIM  DS    F                  ADDR. OF CLASS/SYS.LIMIT CB  @D51IDMZ 00213000
IJBCLTAB DS    F                  ADDRESS OF CLASS TABLE       @D51IDMZ 00214000
IJBPSYSI DS    F                  ADDR OF PWR INFORMATION TABLE@D51IDMZ 00215000
IJBSDPPR DS    F                  ADDR OF SDAID ROUTINE IJSDPPR@D51IDMZ 00216000
IJBPOWNX DS    A                  ADDR OF PUBOWNER EXTENSION   @D51IDMZ 00217000
IJBPWNXL DS    H                  ADDR OF ONE PUBOWN. EXT.ENTRY@D51IDMZ 00218000
IJBFLG08 DS    X                  MORE FLAGS AND SWITCHES      @D51IDMZ 00219000
IJBPTACT EQU   X'80'               0  VSEPT ACTIVE             @D51IDMZ 00220000
IJBEAMOD EQU   X'40'               1  CHANGED ADDRESSING       @D51IDMZ 00221000
IJBSECNT EQU   X'20'               2  NO SEC HANDL. FOR TAPES  @D52VDMZ 00222000
IJBDEBUG EQU   X'10'               3  DEBUG ON                 @D52VDMZ 00223000
IJBNOPDS EQU   X'08'               4  SYSTEM WITHOUT PDS       @D61DDMZ 00224000
IJBSAENV EQU   X'04'               5  STAND ALONE SYSTEM       @D61DDMZ 00225000
IJBCIEXI EQU   X'02'               6  INTEGRATED CONSOLE EXIT  @D61DDMZ 00226000
IJBSVALC EQU   X'01'               7  SVALOAD COMPL. IN SA ENV @D61DDMZ 00227000
IJBFLG09 DS    X                  MORE FLAGS AND SWITCHES      @D61DDMZ 00228000
IJBSIMSG EQU   X'80'               0  SUPPR. IPL MESSAGES (SA) @D61DDMZ 00229000
IJBJSTOP EQU   X'40'               1  PROMPT USER IN STARTUP   @D61DDMZ 00230000
*                                     PROGRAM, SET BY IPL      @D61DDMZ 00231000
IJBCMPSC EQU   X'20'               2  DATA COMP. SERVICE EXIST @D61DDMZ 00232000
IJBCMPSH EQU   X'10'               3  DATA COMP. HW INST.EXIST @D61DDMZ 00233000
IJBATL   EQU   X'08'               4  OFF: TAPE LIBRARY IN VM  @D61DDMZ 00234000
*                                     ON : TAPE LIBRARY IN VSE @D61DDMZ 00235000
IJBEXPLN EQU   X'04'              IF ON: EXPLAIN SUPPORT ON    @D61DDMZ 00236000
IJBRECCA EQU   X'02'              6   FORCE VSAM RECORD CACHING@D63NDMZ 00237000
IJBPOWMP EQU   X'01'              7   POWER MP ENABLED         @D64ADMZ 00238000
IJBJCLUE DS    F                  PTR TO JCL USER EXIT CTRL.BLK@D51IDMZ 00239000
IJBVMCFP DS    A                  ADDR OF AUTHORIZE PARMLIST   @D61NDMZ 00240000
IJBDSICB DS    A                  ADDR OF DATA SPACE INFO. CB  @D52VDMZ 00241000
IJBREXVT DS    A                  REXX VECTOR TABLE            @D52VDMZ 00242000
IJBVSMPT DS    F                  PTR TO VSAM TRACE ENTRY TABLE@D52VDMZ 00243000
IJBCIDEV DS    H                  CUU OF INTEGRAGED CONSOLE    @D61CDMZ 00244000
IJBNLSIC DS    X                  NLS IDENTIFICATION CHARACTER @D61NDMZ 00245000
IJBSPSTB DS    X                  SECURITY PRODUCT STATUS BYTE @D64ADMZ 00246000
IJBDLIPT DS    A                  ADDR OF DL/1 MULTIPLE MPS TAB@D61DDMZ 00247000
IJBCC47I DS    A                  PTR TO CC X'47' INFORMATION  @D61NDMZ 00248000
IJBPERUS DS    X                  PER USER ACTIVE              @D61NDMZ 00249000
IJBFLG0A DS    X                  MORE FLAGS AND SWITCHES      @D67BDMZ 00250000
IJBTLS   EQU   X'80'              TAPE LIBRARY SYSTEM          @D67BDMZ 00251000
IJBLPOOL EQU   X'40'              ADD LS SECTIONS TO POOL      @D67BDMZ 00252000
IJBCPACF EQU   X'20'              CPACF FEATURE AVAILABLE      @D68DDMZ 00253000
IJBPCICA EQU   X'10'              PCICA CARD AVAILABLE         @D68DDMZ 00254000
IJBCEX2  EQU   X'08'              CEX2C OR CEX2A CARD          @D68DDMZ 00255000
IJB31IOE EQU   X'04'              31BIT IO CBLOCKS ENABLED     @D28IMMZ 00255300
IJB31VBE EQU   X'02'              31BIT VTAM BUFFERS ENABLED   @D28IMMZ 00255600
         DS    2X                 RESERVED FOR FUTURE USE      @D61NDMZ 00256000
IJBTDATB DS    A                  TURBO DISPATCHER ADDRESS TAB.@D61NDMZ 00257000
IJBMBADR DS    F                  CHANNEL SUBSYS MEASUREMENT BLOCK     *00258000
                                  ADDRESS                      @D61NDMZ 00259000
IJBCICSI DS    F                  ADDR OF CICS INFORMATION     @D62ADMZ 00260000
IJBBRSUP DS    F                  BRANCH ENTRY FOR SUP. SERVICE@D64ADMZ 00261000
IJBGLOBV DS    F                  ANCHOR FOR JC VARIABLES      @D64IDFM 00262000
IJBSSECB DS    F                  SECURITY SERVER ECB          @D64ADMZ 00263000
IJBSSTID DS    H                  SECURITY SERVER STARTER TID  @D64ADMZ 00264000
         DS    H                  RESERVED FOR FUTURE USE      @D64ADMZ 00265000
IJBLESA  DS    A                  STORAGE ANCHOR SET BY LE     @D68DDMZ 00266000
         DS    2F                 RESERVED FOR FUTURE USE      @D68DDMZ 00267000
IJBFINSC EQU   *                  END OF SYSTEM COM.REGION     @D35EDEM 00268000
         MEND                                                  @D359DEM 00269000
* END OF PLS COMMENT */ %MSYSCOM : ;                       /*@D359DGS*/ 00270000
* DECLARE                                                  /*@D359DGS*/ 00271000
* 1   SYSCOM   BASED,    /* MAP OF SYSTEM COMM. REGION       @D359DGS*/ 00272000
*  2  IJBSYSBG PTR(32),  /* COMMON BASE                      @D68CDOW*/ 00273000
*   3  IJBERBLC PTR(32), /* ADDRESS OF ERROR BLOCK           @D359DGS*/ 00274000
*  2  IJBHWC   CHAR(4),  /* RESERVED                         @D36ZDEM*/ 00275000
*   3 *        CHAR(3),  /* RESERVED                         @D31IDMZ*/ 00276000
*   3 HWIDBYTE CHAR(1),  /* ACTUAL HARD WAIT CODE            @D31IDMZ*/ 00277000
*  2  *        PTR(32),  /* CANCEL EXIT FOR ERP MESSAGE WRITE@D369DEM*/ 00278000
*  2  IJBPUBRS PTR(32),  /* ADDRESS OF SYSRES PUB            @D359DGS*/ 00279000
*  2  IJBPUBLF PTR(32),  /* ADDRESS OF LOCK DEVICE PUB       @D66ADAP*/ 00280000
*  2  IJBSPAVT PTR(32),  /* ADDR OF SUPERV. ADDR.VECTOR      @D14NDFG*/ 00281000
*  2  IJBPTCOM PTR(32),  /* ADDRESS OF VSE/PT COMMUN.AREA    @D14CDFG*/ 00282000
*  2  IJBLTA   PTR(32),  /* ADDR OF LOGICAL TRANSIENT AREA   @D359DGS*/ 00283000
*  2  IJBSABLK PTR(32),  /* NO OF LAST BLOCK (SET BY IPL)    @D61DDMZ*/ 00284000
*  2  IJBFLPTR PTR(32),  /* FREE LIST POINTER                @D359DGS*/ 00285000
*   3 IJBCHANQ PTR(32),  /* ADDRESS OF CHANNEL QUEUE         @D359DGS*/ 00286000
*    4 *       BIT(8),   /* FREE LIST POINTER                @D52VDMZ*/ 00287000
*    4 IJBCHANA PTR(24), /* ADDRESS PORTION                  @D52VDMZ*/ 00288000
*  2  IJBQSIZE FIXED(15),/* NUMBER OF CHANNEL QUEUE ENTRIES  @D359DGS*/ 00289000
*  2  IJBQLNG  FIXED(15),/* LENGTH OF ONE ERROR QUEUE ENTRY  @D359DGS*/ 00290000
*  2  IJBNPART FIXED(15),/* NUMBER OF PARTITIONS             @D359DGS*/ 00291000
*  2  IJBFLG05 PTR(8),   /* FLAGS AND SWITCHES               @D359DGS*/ 00292000
*   3 IJBAF    BIT(1),   /*  AF SUPERVISOR                   @D359DGS*/ 00293000
*   3 *        BIT(1),   /*  REL.35 AND UP                   @D359DGS*/ 00294000
*   3 TPBINACT BIT(1),   /*  TPBAL NOT ACTIVE                @D52VDMZ*/ 00295000
*   3 *        BIT(2),   /*  RESERVED                        @D14ADFG*/ 00296000
*   3 IJBVESA  BIT(1),   /*  VERSION INDICATOR               @D51IDMZ*/ 00297000
*   3 IJBCSCDS BIT(1),   /*  CS AND CDS SUPPORTED            @D14ADFG*/ 00298000
*   3 IJBSIPOF BIT(1),   /*  SIPO FORMAT FLAG                @D14CDFG*/ 00299000
*  2  IJBFLG06 PTR(8),   /* FLAGS FOR IPL                    @D359DGS*/ 00300000
*   3 IJBEMODE BIT(1),   /*  VM/VMXA MODE (SHOULD NOT BE USED@D359DGS*/ 00301000
*   3 IJBXMODE BIT(1),   /*  XA HARDWARE                     @D51GDMZ*/ 00302000
*   3 IJBAREGE BIT(1),   /*  ACC REG ENABLED                 @D64ADMZ*/ 00303000
*   3 IJBAMODE BIT(1),   /*  ESA HARDWARE                    @D51KDTP*/ 00304000
*   3 *        BIT(1),   /*  RESERVED                        @D52VDMZ*/ 00305000
*   3 IJBCKD   BIT(1),   /*  DISK SUPPORT FOR CKD            @D359DGS*/ 00306000
*   3 IJBFBA   BIT(1),   /*  DISK SUPPORT FOR FBA            @D359DGS*/ 00307000
*   3 IJB3800  BIT(1),   /*  3800 SUPPORT INCLUDED           @D359DGS*/ 00308000
*  2  IJBVSIZE PTR(32),  /* TOTAL VIRTUAL STORAGE SIZE       @D14NDFG*/ 00309000
*  2  IJBCONSP PTR(31),  /* ADDRESS OF CONSOLE COMREG        @D61NDMZ*/ 00310000
*  2  IJBOCFCM PTR(32),  /* POINTER TO OCCF COMMUN.REGION    @D37CDEM*/ 00311000
*  2  IJBVIOCM PTR(32),  /* ADDRESS OF VIO COMMUN.AREA       @D14BDFG*/ 00312000
*  2  IJBFLG01 PTR(8),   /* FLAGS AND SWITCHES               @D359DGS*/ 00313000
*   3 IJBRMSR  BIT(1),   /*  RMSR SUPPORTED (CHAN/RMS=YES)   @D359DGS*/ 00314000
*   3 IJBRMS   BIT(1),   /*  RMS SUPPORTED (RMS=YES)         @D359DGS*/ 00315000
*   3 *        BIT(1),   /*  RESERVED,MUST BE 0              @D359DGS*/ 00316000
*   3 *        BIT(4),   /*  RESERVED                        @D36IDEM*/ 00317000
*   3 IJBITDWN BIT(1),   /*  IT-SUPPORT DOWN                 @D35EDOW*/ 00318000
*  2  IJBFLG02 PTR(8),   /* FLAGS AND SWITCHES               @D359DGS*/ 00319000
*   3 SCSIACT  BIT(1),   /* 0  SCSI REQUEST ACTIVE           @D68CDOW*/ 00320000
*   3 IJBJA    BIT(1),   /* 1  SYS OPTION JA=YES             @D14BDFG*/ 00321000
*   3 IJBDSDFP BIT(1),   /* 2  SYS OPTION DASDFP=YES         @D14BDFG*/ 00322000
*   3 IJBSEC   BIT(1),   /* 3  SYS OPTION SEC=YES            @D14BDFG*/ 00323000
*   3 IJBNOUNL BIT(1),   /* 4  TAPE REWIND=UNLOAD            @D21LDAP*/ 00324000
*   3 *        BIT(1),   /* 5  SCHED.ENTERED AFTER INT.      @D149DFG*/ 00325000
*   3 *        BIT(1),   /* 6  RESERVED - FORMER BMPX GATE   @D66HDAV*/ 00326000
*   3 IJBIPLAC BIT(1),   /* 7  IPL ACTIVE                    @D14ZDFG*/ 00327000
*  2  IJBFLG03 PTR(8),   /* FLAGS AND SWITCHES               @D359DGS*/ 00328000
*   3 *        BIT(1),   /* 0  RESERVED                      @D14ZDFG*/ 00329000
*   3 *        BIT(1),   /* 1  RAS WAIT REQUEST OUTSTANDING  @D14ZDFG*/ 00330000
*   3 *        BIT(1),   /* 2  RAS IPL IN PROGRESS           @D14ZDFG*/ 00331000
*   3 IJBIPLV  BIT(1),   /* 3  VIRTUAL STORAGE INITIALIZED   @D14ZDFG*/ 00332000
*   3 *        BIT(1),   /* 4  VSE/POWER SUPPORT, ALWAYS ON  @D14ZDFG*/ 00333000
*   3 IJBPOWA  BIT(1),   /* 5  VSE/POWER ACTIVE              @D31LDMZ*/ 00334000
*   3 *        BIT(1),   /* 6  GETREAL FOR SDAID IN PROGRESS @D14ZDFG*/ 00335000
*   3 IJBIPLAT BIT(1),   /* 7  ATTENTION AT IPL              @D52VDMZ*/ 00336000
*  2  IJBFLG04 PTR(8),   /* FLAGS AND SWITCHES               @D359DGS*/ 00337000
*   3 *        BIT(1),   /* 0  SYSTEM GETVIS AREA INITIAL.   @D14NDFG*/ 00338000
*   3 *        BIT(1),   /* 1  EXCP REAL SUPPORTED           @D14NDFG*/ 00339000
*   3 *        BIT(1),   /* 2  CDLOAD SUPPORTED              @D14NDFG*/ 00340000
*   3 *        BIT(1),   /* 3  BTAM AUTOPOLL ENABLED         @D14NDFG*/ 00341000
*   3 *        BIT(1),   /* 4  XECB SUPPORT                  @D67CDOW*/ 00342000
*   3 IJBVMCF  BIT(1),   /* 5  VMCF SUPPORT                  @D31EMMZ*/ 00343000
*   3 *        BIT(1),   /* 6  BATCH DEACTIVATED BY TPIN     @D14NDFG*/ 00344000
*   3 IJBVMLE  BIT(1),   /* 7  VM MODE                       @D14NDFG*/ 00345000
*  2  IJBHSTID PTR(16),  /* HIGHEST SYSTEM TASK TID          @D14BDFG*/ 00346000
*  2  IJBHMTID PTR(16),  /* HIGHEST MAIN TASK TID            @D14BDFG*/ 00347000
*  2  IJBHPIK  FIXED(15),/* HIGHEST VALID PIK (SET DEPENDING ON IPL     00348000
*                           SYS COMMAND)                     @D51IDMZ*/ 00349000
*  2  IJBCONF  PTR(16),  /* CONFIGURATION BYTES              @D52VDMZ*/ 00350000
*  2  IJBTHPTR PTR(32),  /* TRACKHOLD FLPTR                  @D359DGS*/ 00351000
*   3 IJBTKHLD PTR(32),  /* ADDRESS OF TRACKHOLD TABLE       @D359DGS*/ 00352000
*  2  IJBSECTC PTR(32),  /* ADDR OF SECTOR CALCULATION ROUT. @DY45385*/ 00353000
*  2  IJBAFCPA PTR(31),  /* ADDR OF FCP ANCHOR TABLE         @D68DDMZ*/ 00354000
*  2  IJBLIK   PTR(16),  /* ID.OF TASK OWNING LTA IN DEP.MODE@D36IDEM*/ 00355000
*  2  IJBTIK   PTR(16),  /* IDENTIFIER  OF TASK RUNNING      @D36IDEM*/ 00356000
*  2  IJBPWR   PTR(32),  /* ADDRESS OF POWER TABLE           @D359DGS*/ 00357000
*  2  IJBTCAVT PTR(31),  /* VTAM ADDRESS VECTOR TABLE        @D61NDMZ*/ 00358000
*  2  IJBRFTAB PTR(32),  /* ADDRESS OF RF TABLE              @D359DGS*/ 00359000
*  2  IJBEUECB PTR(32),  /* RESERVED                         @D359DGS*/ 00360000
*  2  IJBOLTEP PTR(32),  /* ADDRESS OF OLTEP BUCKET          @D359DGS*/ 00361000
*   3 IJBOLTSW BIT(8),   /* OLTEP SWITCH                     @D14CDJB*/ 00362000
*    4 IJBOLTAC BIT(1),  /* OLTEP IS ACTIVE                  @D14CDJB*/ 00363000
*    4 *        BIT(7),  /* RESERVED                         @D14CDJB*/ 00364000
*   3 IJBOLTPT PTR(24),  /* ADDRESS OF OLTEP BUCKET          @D14CDJB*/ 00365000
*  2  IJBRASLN PTR(32),  /* ADDRESS OF RAS LINKAGE AREA      @D359DGS*/ 00366000
*  2  IJBTRTAB PTR(32),  /* ADDRESS OF TRANSLATE TABLE       @D359DGS*/ 00367000
*  2  IJBPBOWN PTR(32),  /* ADDR OF PUB OWNERSHIP EXTENSION  @D359DGS*/ 00368000