         MACRO                                                          00050000
&NAME    TECB                                                           00100000
.*                                                                      00150000
         AGO   .ZZZ                                                     00200000
*********************************************************************** 00250000
*                                                                     * 00300000
*        THIS MACRO IS "RESTRICTED MATERIALS OF IBM"                  * 00350000
*        5686-007 (C) COPYRIGHT IBM CORP. 1977,1989                   * 00400000
*        ALL RIGHTS RESERVED                                          * 00450000
*        LICENSED MATERIALS-PROPERTY OF IBM                           * 00500000
*        SEE COPYRIGHT INSTRUCTIONS, G120-2083                        * 00550000
*                                                                     * 00600000
*********************************************************************** 00650000
.ZZZ ANOP                                                               00700000
         AIF   (T'&NAME EQ 'O').NO                                      00750000
&NAME    DC    4X'00'                                                   00800000
         MEXIT                                                          00850000
.NO      MNOTE 6,'NAME OMITTED - MACRO IGNORED'                         00900000
         MEND                                                           00950000
