         MACRO                                                          00050000
&NAME    TESTT &CANCEL                                                  00100000
.*                                                                      00150000
         AGO   .ZZZ                                                     00200000
*********************************************************************** 00250000
*                                                                     * 00300000
*        THIS MACRO IS "RESTRICTED MATERIALS OF IBM"                  * 00350000
*        5686-007 (C) COPYRIGHT IBM CORP. 1977,1988                   * 00400000
*        ALL RIGHTS RESERVED                                          * 00450000
*        LICENSED MATERIALS - PROGRAM PROPERTY OF IBM                 * 00500000
.*       SEE COPYRIGHT INSTRUCTIONS, G120-2083                        * 00550000
*                                                                     * 00600000
*********************************************************************** 00650000
.ZZZ ANOP                                                               00700000
.* /* START OF SPECIFICATIONS ***************************************** 00750000
.*                                                                      00800000
.*01* MODULE-TYPE = MACRO                                               00850000
.*                                                                      00900000
.*01* DESCRIPTIVE-NAME = TEST TASK TIMER                                00950000
.*                                                                      01000000
.*01* NOTES = CHANGE ACTIVITY                                           01050000
.*    CHANGE DESCRIPTIONS                                               01100000
.*    NEW MODULE - FIRST RELEASE 33                            @D33PAFG 01150000
.*    INVALID OPERAND INTERPRETED AS COMMENT                   @D35EDFG 01200000
.**** END OF SPECIFICATIONS ***************************************** / 01250000
&NAME    DS    0H                                                       01300000
         AIF   ('&CANCEL' NE '').CANC                                   01350000
.TTMR    SR    0,0                TEST TASK TIMER              @D35EDFG 01400000
         AGO   .TTMR1                                          @D35EDFG 01450000
.CANC    AIF   ('&CANCEL' EQ 'CANCEL').CANC1                   @D35EDFG 01500000
         MNOTE 0,'INVALID PARAMETER, IGNORED'                  @D35EDFG 01550000
         AGO   .TTMR                                           @D35EDFG 01600000
.CANC1   LA    0,1                INDICATE 'CANCEL' OPTION     @D35EDFG 01650000
.TTMR1   ANOP                                                           01700000
         SVC   81                 TESTT SVC                             01750000
         MEND                                                           01800000
