         MACRO                                                          00050000
&NAME    TPOUT  &L                                             @D31AUHL 00100000
*  SUPERVISOR  - TPOUT -  5686-007-06-C44                      @D31UDRP 00150000
.*************************************************************          00200000
.*                                                           *          00250000
       AGO  .ZZZ                                             * @D31UDRP 00300000
*      THIS MACRO IS "RESTRICTED MATERIALS OF IBM"           * @D31UDRP 00350000
*      5686-007 (C) COPYRIGHT IBM CORP. 1977, 1988           * @D31UDRP 00400000
*      ALL RIGHTS RESERVED                                   * @D31UDRP 00450000
*      LICENSED MATERIALS-PROPERTY OF IBM                    * @D31UDRP 00500000
.*     SEE COPYRIGHT INSTRUCTIONS, G120-2083                 * @D31UDRP 00550000
.ZZZ   ANOP                                                  * @D31UDRP 00600000
.*************************************************************          00650000
.* THIS MACRO STOPS TP BALANCING                               @D31AUHL 00700000
&NAME    L     1,X'80'            GET SYSCOM PTR               @D35CDRP 00750000
         TM    X'2E'(1),X'20'     TPBAL ACTIVE ?               @D35CDRP 00800000
         BO    *+6                NO, SKIP SVC                 @D35CDRP 00850000
         SVC   89                                              @D31AUHL 00900000
         MEND                                                           00950000
