      MACRO                                                             00050000
&NAME    TSTOP  &COND=,                                                *00100000
               &RETURN=                                                 00150000
.*                                                                      00200000
         LCLA  &FC                            FUNCTION CODE             00250000
.*                                                                      00300000
***************************************************************         00350000
*                                                             *@D51MDGL 00400000
.*       IBM VSE / ADVANCED FUNCTIONS                         *@D51MDGL 00450000
*        SUPERVISOR - TSTOP - 5686-007-06-C440                *@D31UDGN 00500000
.*                                                                      00550000
         AGO   .CPRIGHT                                                 00600000
.*                                                                      00650000
*        LICENSED MATERIALS - PROGRAM PROPERTY OF IBM         *@D51MDGL 00700000
*        THIS MACRO IS "RESTRICTED MATERIALS OF IBM"          *@D51MDGL 00750000
*        5686-007 (C) COPYRIGHT IBM CORP. 1979, 1989          *@D51MDGL 00800000
*        SEE COPYRIGHT INSTRUCTIONS                           *@D51MDGL 00850000
.*                                                                      00900000
.CPRIGHT ANOP                                                           00950000
*                                                             *@D51MDGL 01000000
***************************************************************         01050000
.*                                                                      01100000
.**** START OF SPECIFICATIONS ***************************************** 01150000
.*                                                                      01200000
.*01* MODULE-TYPE = MACRO                                               01250000
.*                                                                      01300000
.*01* DESCRIPTIVE NAME = DEACTIVATE THE CURRENT TASK OR PARTITION       01350000
.*                                                                      01400000
.*  STATUS           =  NEW MACRO - FIRST RELEASE 1.2                   01450000
.*  FUNCTION         =  THE MACRO CHECKS THE USER SUPPLIED              01500000
.*                      COND-OPERAND AND SETS THE CORRESPONDING         01550000
.*                      FUNCTION CODE FOR SVC107.                       01600000
.*  NOTES            =                                                  01650000
.*  DEPENDENCIES     =                                                  01700000
.*  RESTRICTIONS     =                                                  01750000
.*  REGISTER CONVENT.=  REGISTER 15 CONTAINS THE FUNCTION CODE          01800000
.*  PATCH LABEL      =  NONE                                            01850000
.*  MACRO TYPE       =  ASSEMBLER                                       01900000
.*  PROCESSOR        =  ASM                                             01950000
.*  MACRO SIZE       =                                                  02000000
.*  ATTRIBUTES       =                                                  02050000
.*  ENTRY POINT      =  TSTOP                                           02100000
.*  PURPOSE          =  SEE FUNCTION                                    02150000
.*  LINKAGE          =                                                  02200000
.*  CALLER           =                                                  02250000
.*  INPUT            =   (CALLING SEQUENCE)                             02300000
.*    1. ASM :                                                          02350000
.*        LABEL   TSTOP    COND=(SYSBND,RETURN=YES|NO) OR               02400000
.*                         COND=STOP                   OR               02450000
.*                         COND=UNBATCH                                 02500000
.*                  DEFAULT:  COND=(SYSBND,RETURN=NO)                   02550000
.*                                                                      02600000
.*                      OPERANDS :                                      02650000
.*                      COND = SYSBND                                   02700000
.*                             DEACTIVATE NONRESIDENT SYSTEMTASKS       02750000
.*                             RETURN=NO                                02800000
.*                             SAVE TASK STATUS AND CONTINUE TASK       02850000
.*                             WITH NEXT INSTRUCTION AFTER REACTI-      02900000
.*                             VATION.                                  02950000
.*                             RETURN=YES                               03000000
.*                             CONTROL RETURNS TO THE NEXT INSTRUC-     03050000
.*                             TION WITHOUT SAVING.                     03100000
.*                      COND = STOP                                     03150000
.*                             STOP PROCESSING IN THE CURRENT           03200000
.*                             PARTITION.STATUS IS SAVED AND            03250000
.*                             PROCESSING CONTINUES WITH THE NEXT       03300000
.*                             INSTRUCTION WHEN THE THE PARTITION       03350000
.*                             IS REACTIVATED.                          03400000
.*                      COND = UNBATCH                                  03450000
.*                             STOP PROCESSING IN THE CURRENT           03500000
.*                             PARTITION WITHOUT SAVING STATUS.         03550000
.*                             THE INVALIDATED PARTITON HAS TO          03600000
.*                             BE REINITIALIZED, WHEN IT IS             03650000
.*                             STARTED AGAIN.                           03700000
.*                                                                      03750000
.*  OUTPUT(ASSEMBLER)= NECESSARY INSTRUCTIONS TO LOAD                   03800000
.*                                                                      03850000
.*           REGISTER 15 : COND = NN      X'000000XX'                   03900000
.*                                                                      03950000
.*           ---------------------------------                          04000000
.*           | COND           | FUNCTIONCODE |                          04050000
.*           ---------------------------------                          04100000
.*           | SYSBND,        |              |                          04150000
.*           |     RETURN=YES | X'00000016'  |                          04200000
.*           | SYSBND,        |              |                          04250000
.*           |     RETURN=NO  | X'00000017'  |                          04300000
.*           | STOP           | X'00000018'  |                          04350000
.*           | UNBATCH        | X'00000019'  |                          04400000
.*           ---------------------------------                          04450000
.*                                                                      04500000
.*           ERR. : MNOTE WITH RC 8 IF COND INVALID                     04550000
.*                                                                      04600000
.*  MACROS GENERATING SVC 107 :                                @D149DWK 04650000
.*         GETFLD,   MODFLD,   TREADY,   TSTOP,   RLOCK,       @D149DWK 04700000
.*         SRCHFLD,  DEVUSE,   DEVREL,   SENTER,  SLEAVE,      @D149DWK 04750000
.*         VIOPOINT                                            @D149DWK 04800000
.*                                                                      04850000
.* ====> CHECK SUPERVISOR GENERATION MACRO SGTINF FOR HIGHEST  @D149DWK 04900000
.* ====> USED FUNCTION CODE WHEN EXTENDING TSTOP               @D149DWK 04950000
.*                                                                      05000000
.*  OUTPUT(EXECUTION)=  TASK OR PARTITION CHANGED TO                    05050000
.*                      REQUESTED STATUS.                               05100000
.*                                                                      05150000
.*  EXIT NORMAL      =  COMPILER :                                      05200000
.*                      MACRO EXPANSION                                 05250000
.*                      EXECUTION:                                      05300000
.*                      CONTROL RETURNED TO USER                        05350000
.*                                                                      05400000
.*  EXIT ERROR       =  COMPILER :                                      05450000
.*                      MNOTES INDICATING THE ERROR                     05500000
.*                      EXECUTION:                                      05550000
.*                      ILLEGAL SVC FORCED, NO RETURN CODE SET          05600000
.*                                                                      05650000
.*                                                                      05700000
.*  EXTERNAL REFEREN.=  NONE                                            05750000
.*  ROUTINES         =  SVC 107 (SUPERVISOR GENERATION MACRO SGTINF)    05800000
.*  DATA AREAS       =  NONE                                            05850000
.*  CONTROL BLOCKS   =  NONE                                            05900000
.*  TABLES           =  NONE                                            05950000
.*  MACROS           =  NONE                                            06000000
.*  CHANGE ACTIVITIES=  NEW MACRO   FIRST RELEASE 1.2                   06050000
.*  CHANGE 01        =  RELEASE 2.1 EXTENSION (COMMENTS)       @D149DWK 06100000
.*  MODIFIED REGISTER=  REGISTER 15                                     06150000
.*                                                                      06200000
.*  A000000-999999                                             @D36IDWK 06250000
.*                                                                      06300000
.** END OF SPECICATIONS *********************************************** 06350000
.*                                                                      06400000
.********************************************************************** 06450000
.*                                                                      06500000
.* MACRO DIAGNOSTIC                                                     06550000
.*                                                                      06600000
.********************************************************************** 06650000
.*                                                                      06700000
.* CHECK SPECIFIED PARAMETER                                            06750000
.*                                                                      06800000
.********************************************************************** 06850000
         AIF   (T'&COND EQ 'O').CHKRETO       CHECK FOR RETURN OPERAND  06900000
         AIF   ('&COND' EQ 'SYSBND').CHKRETO  COND OPERAND VALID        06950000
         AIF   ('&COND' EQ 'STOP').CHKIRET    COND OPERAND VALID        07000000
         AIF   ('&COND' NE 'UNBATCH').NOTE01  INVALID COND OPERAND      07050000
.CHKIRET ANOP                                                           07100000
         AIF   (T'&RETURN EQ 'O').CHKFC18     RETURN OPERAND OMITTED    07150000
.WNOTE01 MNOTE 1,'RETURN OPERAND IGNORED FOR COND = &COND '             07200000
.CHKFC18 ANOP                                                           07250000
         AIF   ('&COND' EQ 'STOP').SETFC18    COND=STOP,SET FC 18       07300000
         AGO   .SETFC19                       COND=UNBATCH,SET FC 19    07350000
.CHKRETO ANOP                                                           07400000
         AIF   (T'&RETURN EQ 'O').SETFC16     RETURN WITHOUT COND SPEC. 07450000
         AIF   ('&RETURN' EQ 'NO').SETFC16    SET FUNCTION CODE 16      07500000
         AIF   ('&RETURN' EQ 'YES').SETFC17   SET FUNCTION CODE 17      07550000
         AGO   .NOTE02                        INVALID RETURN OPERAND    07600000
.********************************************************************** 07650000
.*                                                                      07700000
.*  MACRO DIAGNOSTICS: MNOTES RC = 8                                    07750000
.*                                                                      07800000
.********************************************************************** 07850000
.NOTE01  MNOTE 8,'COND = &COND INVALID '                                07900000
         MEXIT                                                          07950000
.NOTE02  MNOTE 8,'RETURN = &RETURN INVALID '                            08000000
         MEXIT                                                          08050000
.********************************************************************** 08100000
.*                                                                      08150000
.* SET FUNCTION CODE                                                    08200000
.*                                                                      08250000
.********************************************************************** 08300000
.SETFC16 ANOP                                                           08350000
&FC      SETA  22                             COND=SYSBND,RETURN=NO     08400000
         AGO   .CHKLBL                        CHECK AND SET LABEL       08450000
.SETFC17 ANOP                                                           08500000
&FC      SETA  23                             COND=SYSBND,RETURN=YES    08550000
         AGO   .CHKLBL                        CHECK AND SET LABEL       08600000
.SETFC18 ANOP                                                           08650000
&FC      SETA  24                             COND = STOP               08700000
         AGO   .CHKLBL                        CHECK AND SET LABEL       08750000
.SETFC19 ANOP                                                           08800000
&FC      SETA  25                             COND = UNBATCH            08850000
.********************************************************************** 08900000
.*                                                                      08950000
.* CHECK AND SET LABEL                                                  09000000
.*                                                                      09050000
.********************************************************************** 09100000
.CHKLBL  ANOP                                                           09150000
         AIF   (T'&NAME EQ 'O').NOLBL         IF LABEL NOT SPECIFIED    09200000
&NAME    DC    0H'0'                                                    09250000
.NOLBL   ANOP                                 THEN CHECK FC             09300000
.********************************************************************** 09350000
.*                                                                      09400000
.* GENERATE FUNCTION CODE AND SVC                                       09450000
.*                                                                      09500000
.********************************************************************** 09550000
.GENFC   ANOP                                                           09600000
         LA    15,&FC.(,0)                  SET FUNCTION CODE  @D14ZDWK 09650000
         SVC   107                          HANDLE REQUEST              09700000
         MEND                                                        */ 09750000
