             MACRO                                                      00050000
&NAME        TTIMER &CANCEL                                             00100000
.*                                                                      00150000
         AGO   .ZZZ                                                     00200000
*********************************************************************** 00250000
*                                                                     * 00300000
*        THIS MACRO IS "RESTRICTED MATERIALS OF IBM"                  * 00350000
*        5686-007 (C) COPYRIGHT IBM CORP. 1977,1988                   * 00400000
*        ALL RIGHTS RESERVED                                          * 00450000
*        LICENSED MATERIALS - PROGRAM PROPERTY OF IBM                 * 00500000
.*       SEE COPYRIGHT INSTRUCTIONS, G120-2083                        * 00550000
*                                                                     * 00600000
*********************************************************************** 00650000
.ZZZ ANOP                                                               00700000
&NAME        DS    0H                                                   00750000
             AIF   ('&CANCEL' NE 'CANCEL').TTIMER1                      00800000
             LA    0,1       LOAD NON-ZERO TO INDICATE CANCEL @DF282093 00850000
             AGO   .TTIMER2                                             00900000
.TTIMER1     SR    0,0       CLEAR REG TO INDICATE NORMAL USE @DF282093 00950000
             AIF   ('&CANCEL' EQ '').TTIMER2                            01000000
             MNOTE 0,'INVALID PARAMETER, IGNORED'                       01050000
.TTIMER2     SVC   52                                                   01100000
             MEXIT                                                      01150000
             MEND                                                       01200000
