         MACRO                                                          00050000
&NAME    VIRTAD &REAL                                                   00100000
.*                                                                      00150000
*********************************************************************** 00200000
*                                                                       00250000
.*       IBM VSE / ADVANCED FUNCTIONS                          @D31UDGN 00300000
*        SUPERVISOR - VIRTAD - 5686-007-06-C440                @D31UDGN 00350000
.*                                                                      00400000
         AGO   .CPRIGHT                                                 00450000
.*                                                                      00500000
*        THIS MACRO IS "RESTRICTED MATERIALS OF IBM"           @D31UDGN 00550000
*        5686-007 (C) COPYRIGHT IBM CORP. 1979, 1989           @D31UDGN 00600000
*        ALL RIGHTS RESERVED                                   @D31UDGN 00650000
*        LICENSED MATERIALS - PROGRAM PROPERTY OF IBM          @D31UDGN 00700000
.*       SEE COPYRIGHT INSTRUCTIONS, G120-2083                 @D31UDGN 00750000
.*                                                                      00800000
.CPRIGHT ANOP                                                           00850000
*                                                                       00900000
*********************************************************************** 00950000
.*                                                                      01000000
         AIF   (T'&REAL EQ 'O').L3                                      01050000
&NAME    SR    0,0 .               CLEAR PARAMETER REG.                 01100000
         AIF   ('&REAL'(1,1) EQ '(').L1                                 01150000
         L     1,=A(&REAL) .       LOAD REAL ADDRESS                    01200000
         AGO   .L2                                                      01250000
.L1      ANOP                                                           01300000
         AIF   ('&REAL'(2,2) EQ '1)').L2                       @DF01314 01350000
         LR    1,&REAL(1) .        LOAD REAL ADDRESS                    01400000
.L2      SVC   70 .                GET VIRTUAL ADDRESS                  01450000
         MEXIT                                                          01500000
.L3      MNOTE 5,'NO PARAMETER SPECIFIED, MACRO IGNORED'                01550000
         MEND                                                           01600000
