         MACRO                                                 @N01AE4A 00050000
&NAME    VSIUCV &CB=,                  VSIUCVU OR VSIUCVPL     @N01AE4AX00100000
               &OP=,                   OP CODE                 @N01AE4AX00150000
               &VSIUCVU=,              VSIUCVU(SEVR,ACPT,CONN) @N01AE4AX00200000
               &TRGTID=,               TARGET VMID, NAME       @N01AE4AX00250000
               &PATH=,                 PATH NUMBER             @N01AE4AX00300000
               &UDATA=,                USER DATA               @N01AE4AX00350000
               &PRTY=,                 PRIORITY MESSAGES       @N01AE4AX00400000
               &QUIES=,                CONNECT QUIESCED        @N01AE4AX00450000
               &MSGLIM=,               MESSAGE LIMIT           @N01AE4AX00500000
               &ID=,                   USER (SOURCE) NAME      @N01AE4AX00550000
               &EXIT=                  EXIT ADDRESS            @N01AE4A 00600000
         LCLA  &DISP                   DISPLACEMENTS           @N01AE4A 00650000
         LCLB  &VA,&VR                 VSIUCVU--ADCON,REG      @N01AE4A 00700000
         LCLB  &T                      TRGTID                  @N01AE4A 00750000
         LCLB  &PN,&PR                 PATH--NUMBER,REG        @N01AE4A 00800000
         LCLB  &UD,&UR                 UDATA--DATA,REG         @N01AE4A 00850000
         LCLB  &PA,&PO                 PTRY--OFF,ON            @N01AE4A 00900000
         LCLB  &QA,&QO                 QUIES--OFF,ON           @N01AE4A 00950000
         LCLB  &AND,&OR                NI, OI REQUIRED         @N01AE4A 01000000
         LCLB  &MV,&MR                 MSGLIM--VALUE,REG       @N01AE4A 01050000
         LCLB  &I                      ID                      @N01AE4A 01100000
         LCLB  &EA,&ER                 EXIT--ADCON,REG         @N01AE4A 01150000
         LCLB  &CNOP                   CNOP REQUIRED           @N01AE4A 01200000
         SPACE 1                                               @D37CDJB 01250000
         AGO .ZZZ                                                       01300000
***************************************************************         01350000
*        THIS MACRO IS "RESTRICTED MATERIALS OF IBM"          *         01400000
*        5686-007 (C) COPYRIGHT IBM CORP 1980,1988            *         01450000
*        ALL RIGHTS RESERVED                                  *         01500000
*        LICENSED MATERIALS-PROPERTY OF IBM                   *         01550000
.*       SEE COPYRIGHT INSTRUCTIONS, G120-2083                *         01600000
***************************************************************         01650000
.ZZZ     ANOP                                                 *         01700000
.* A000000-999999                                             *@D37CDJB 01750000
*                                                             *         01800000
         SPACE 1                                               @D37CDJB 01850000
&PA      SETB  1                       DON'T TURN OFF          @N01AE4A 01900000
&QA      SETB  1                       DON'T TURN OFF          @N01AE4A 01950000
         AIF   ('&OP' EQ '').COM00     OP MUST BE MISSING OR   @N01AE4A 02000000
         AIF   ('&OP' EQ 'CLOS').COM00 CLOS OR                 @N01AE4A 02050000
         AIF   ('&OP' EQ 'OPEN').COM00 OPEN OR                 @N01AE4A 02100000
         AIF   ('&OP' EQ 'SEVR').COM00 SEVR OR                 @N01AE4A 02150000
         AIF   ('&OP' EQ 'ACPT').COM00 ACPT OR                 @N01AE4A 02200000
         AIF   ('&OP' EQ 'CONN').COM00 CONN OR                 @D37CDJB 02250000
         AIF   ('&OP' NE 'SSTE').E1    SSTE.  ELSE, ERROR.     @D37CDJB 02300000
         AIF   ('&EXIT' EQ '').COM01   EXIT NOT VALID FOR SSTE @D37CDJB 02350000
         AGO   .E5                                             @D37CDJB 02400000
.COM00   AIF   ('&ID' NE '').OCHK      ID AND                  @N01AE4A 02450000
         AIF   ('&EXIT' EQ '').COM01   EXIT ONLY VALID         @N01AE4A 02500000
.OCHK    AIF   ('&OP' NE 'OPEN').E3    WITH OP=OPEN.           @N01AE4A 02550000
.COM01   AIF   ('&VSIUCVU' NE '').CLCHK VSIUCVU AND            @N01AE4A 02600000
         AIF   ('&PATH' EQ '').COM06   PATH NOT VALID WITH     @N01AE4A 02650000
.CLCHK   AIF   ('&OP' EQ 'CLOS').E5    OP=CLOS OR              @N01AE4A 02700000
         AIF   ('&OP' EQ 'OPEN').E5    OP=OPEN                 @N01AE4A 02750000
         AIF   ('&OP' EQ 'SSTE').E5    OP=SSTE                 @D37CDJB 02800000
.COM06   AIF   ('&UDATA' NE '').SCHK   UDATA AND               @N01AE4A 02850000
         AIF   ('&QUIES' EQ '').COM11  QUIES NOT VALID WITH    @N01AE4A 02900000
.SCHK    AIF   ('&OP' EQ 'SEVR').E5    OP=SEVER OR             @N01AE4A 02950000
         AIF   ('&OP' EQ 'CLOS').E5    OP=CLOS OR              @N01AE4A 03000000
         AIF   ('&OP' EQ 'OPEN').E5    OP=OPEN                 @N01AE4A 03050000
         AIF   ('&OP' EQ 'SSTE').E5    OP=SSTE                 @D37CDJB 03100000
.COM11   AIF   ('&PATH' EQ '').COM16   PATH NOT VALID WITH     @N01AE4A 03150000
         AIF   ('&OP' EQ 'CONN').E5    OP=CONN                 @N01AE4A 03200000
.COM16   AIF   ('&TRGTID' NE '').ACHK  TRGTID AND              @N01AE4A 03250000
         AIF   ('&PRTY' NE '').ACHK    PRTY AND                @N01AE4A 03300000
         AIF   ('&MSGLIM' EQ '').COM21 MSGLIM NOT VALID WITH   @N01AE4A 03350000
.ACHK    AIF   ('&OP' EQ 'ACPT').E5    OP=ACPT OR              @N01AE4A 03400000
         AIF   ('&OP' EQ 'SEVR').E5    OP=SEVER OR             @N01AE4A 03450000
         AIF   ('&OP' EQ 'CLOS').E5    OP=CLOS OR              @N01AE4A 03500000
         AIF   ('&OP' EQ 'OPEN').E5    OP=OPEN                 @N01AE4A 03550000
         AIF   ('&OP' EQ 'SSTE').E5    OP=SSTE                 @D37CDJB 03600000
.COM21   AIF   ('&CB' EQ '').E7        CB IS REQUIRED          @N01AE4A 03650000
         AIF   ('&CB'(1,1) EQ '(').CBREG CB IN A REGISTER      @N01AE4A 03700000
&NAME    LA    1,&CB                   BLOCK ADDR TO REG 1     @N01AE4A 03750000
         AGO   .OPCODE                 ROUTE ON OP CODE        @N01AE4A 03800000
.CBREG   ANOP                                                  @N01AE4A 03850000
&NAME    LR    1,&CB                   BLOCK ADDR TO REG 1     @N01AE4A 03900000
.OPCODE  AIF   ('&OP' NE 'SSTE').CLOSE                         @D37CDJB 03950000
         LA    0,6                     SUPERVISOR STATE OPCODE @D37CDJB 04000000
         AIF   ('&ID' EQ '').NOIDST    IF NO ID                @D37CDJB 04050000
&I       SETB  1                       ID IS THERE             @D37CDJB 04100000
&DISP    SETA  &DISP+8                 BUMP DISP BY ID LENGTH  @D37CDJB 04150000
.NOIDST  ANOP                                                  @D37CDJB 04200000
         AGO   .FINISH                                         @D37CDJB 04250000
.CLOSE   AIF   ('&OP' NE 'CLOS').OPEN                          @N01AE4A 04300000
         LA    0,1                     CLOSE OP CODE           @N01AE4A 04350000
         AGO   .SVC                                            @N01AE4A 04400000
.OPEN    AIF   ('&OP' NE 'OPEN').SEVR                          @N01AE4A 04450000
         LA    0,2                     OPEN OP CODE            @N01AE4A 04500000
         AIF   ('&ID' EQ '').EXIT      IF NO ID, TRY EXIT      @N01AE4A 04550000
&I       SETB  1                       ID IS THERE             @N01AE4A 04600000
&DISP    SETA  &DISP+8                 BUMP DISP BY ID LENGTH  @N01AE4A 04650000
.EXIT    AIF   ('&EXIT' EQ '').FINISH  IF NO EXIT, GO FINISH   @N01AE4A 04700000
         AIF   ('&EXIT'(1,1) EQ '(').EXREG EXIT IN A REG       @N01AE4A 04750000
&EA      SETB  1                       EXIT ADCON              @N01AE4A 04800000
&CNOP    SETB  1                       CNOP REQUIRED           @N01AE4A 04850000
&DISP    SETA  &DISP+4                 BUMP DISP BY ADCON LEN  @N01AE4A 04900000
         AGO   .FINISH                 GO FINISH               @N01AE4A 04950000
.EXREG   ANOP                                                  @N01AE4A 05000000
&ER      SETB  1                       EXIT REG                @N01AE4A 05050000
         AGO   .FINISH                 GO FINISH               @N01AE4A 05100000
.SEVR    AIF   ('&OP' NE 'SEVR').ACPT                          @N01AE4A 05150000
         LA    0,3                     SEVER OP CODE           @N01AE4A 05200000
         AGO   .PATH                   DO MORE OPERANDS        @N01AE4A 05250000
.ACPT    AIF   ('&OP' NE 'ACPT').CONN                          @N01AE4A 05300000
         LA    0,4                     ACCEPT OP CODE          @N01AE4A 05350000
         AGO   .QUIES                  DO MORE OPERANDS        @N01AE4A 05400000
.CONN    AIF   ('&OP' NE 'CONN').NOOPCD                        @N01AE4A 05450000
         LA    0,5                     CONNECT OP CODE         @N01AE4A 05500000
         AGO   .TRGTID                 DO MORE OPERANDS        @N01AE4A 05550000
.NOOPCD  SR    0,0                     CLEAR OPCODE REG        @N01AE4A 05600000
         IC    0,48(,1)                FETCH OP CODE           @N01AE4A 05650000
.TRGTID  AIF   ('&TRGTID' EQ '').MSGLIM                        @N01AE4A 05700000
&T       SETB  1                       TRGTID IS THERE         @N01AE4A 05750000
&DISP    SETA  &DISP+16                BUMP DISP BY TRGTID LEN @N01AE4A 05800000
.MSGLIM  AIF   ('&MSGLIM' EQ '').PRTY                          @N01AE4A 05850000
         AIF   ('&MSGLIM'(1,1) EQ '(').MLREG MSGLIM IN A REG   @N01AE4A 05900000
&MV      SETB  1                       MSGLIM VALUE            @N01AE4A 05950000
&DISP    SETA  &DISP+2                 BUMP DISP BY MSGLIM LEN @N01AE4A 06000000
         AGO   .PRTY                   NEXT OPERAND            @N01AE4A 06050000
.MLREG   ANOP                                                  @N01AE4A 06100000
&MR      SETB  1                       MSGLIM REG              @N01AE4A 06150000
.PRTY    AIF   ('&PRTY' EQ '').QUIES                           @N01AE4A 06200000
         AIF   ('&PRTY' EQ 'YES').POR  IF YES, BIT ON          @N01AE4A 06250000
&PA      SETB  0                       RESET BIT               @N01AE4A 06300000
&AND     SETB  1                       NI REQUIRED             @N01AE4A 06350000
         AGO   .QUIES                                          @N01AE4A 06400000
.POR     ANOP                                                  @N01AE4A 06450000
&PO      SETB  1                       SET BIT                 @N01AE4A 06500000
&OR      SETB  1                       OI REQUIRED             @N01AE4A 06550000
.QUIES   AIF   ('&QUIES' EQ '').UDATA                          @N01AE4A 06600000
         AIF   ('&QUIES' EQ 'YES').QOR IF YES, BIT ON          @N01AE4A 06650000
&QA      SETB  0                       RESET BIT               @N01AE4A 06700000
&AND     SETB  1                       NI REQUIRED             @N01AE4A 06750000
         AGO   .UDATA                                          @N01AE4A 06800000
.QOR     ANOP                                                  @N01AE4A 06850000
&QO      SETB  1                       SET BIT                 @N01AE4A 06900000
&OR      SETB  1                       OI REQUIRED             @N01AE4A 06950000
.UDATA   AIF   ('&UDATA' EQ '').PATH                           @N01AE4A 07000000
         AIF   ('&UDATA'(1,1) EQ '(').UDREG UDATA IN REG       @N01AE4A 07050000
&UD      SETB  1                       UDATA DATA              @N01AE4A 07100000
&CNOP    SETB  1                       CNOP REQUIRED           @N01AE4A 07150000
&DISP    SETA  &DISP+4                 BUMP DISP BY UDATA LEN  @N01AE4A 07200000
         AGO   .PATH                                           @N01AE4A 07250000
.UDREG   ANOP                                                  @N01AE4A 07300000
&UR      SETB  1                       UDATA REG               @N01AE4A 07350000
.PATH    AIF   ('&PATH' EQ '').VIU                             @N01AE4A 07400000
         AIF   ('&PATH'(1,1) EQ '(').PREG PATH IN REG          @N01AE4A 07450000
&PN      SETB  1                       PATH IS NUMBER          @N01AE4A 07500000
&DISP    SETA  &DISP+2                 BUMP DISP BY PATH LEN   @N01AE4A 07550000
         AGO   .VIU                                            @N01AE4A 07600000
.PREG    ANOP                                                  @N01AE4A 07650000
&PR      SETB  1                       PATH REG                @N01AE4A 07700000
.VIU     AIF   ('&VSIUCVU' EQ '').FINISH                       @N01AE4A 07750000
         AIF   ('&VSIUCVU'(1,1) EQ '(').VREG VSIUCVU IN REG    @N01AE4A 07800000
&VA      SETB  1                       VSIUCVU IS ADCON        @N01AE4A 07850000
&CNOP    SETB  1                       CNOP REQUIRED           @N01AE4A 07900000
&DISP    SETA  &DISP+4                 BUMP DISP BY ADCON LEN  @N01AE4A 07950000
         AGO   .FINISH                                         @N01AE4A 08000000
.VREG    ANOP                                                  @N01AE4A 08050000
&VR      SETB  1                       VSIUCVU REG             @N01AE4A 08100000
.FINISH  AIF   (&DISP EQ 0).FINISH1    NO DC'S                 @N01AE4A 08150000
         AIF   (&CNOP EQ 0).BRANCH     NO CNOP REQUIRED        @N01AE4A 08200000
         CNOP  0,4                     ALIGN FOR ADCON(S)      @N01AE4A 08250000
.BRANCH  ANOP                                                  @N01AE4A 08300000
&DISP    SETA  &DISP+4                 BUMP BY LEN OF BRANCH   @N01AE4A 08350000
         B     *+&DISP                 BRANCH AROUND DC(S)     @N01AE4A 08400000
&DISP    SETA  0                       REINIT DISP             @N01AE4A 08450000
         AIF   (&VA EQ 0).UD           VSIUCVU ADCON           @N01AE4A 08500000
         DC    A(&VSIUCVU)             VSIUCVU ADDRESS         @N01AE4A 08550000
.UD      AIF   (&UD EQ 0).EA           UDATA DATA              @N01AE4A 08600000
         DC    A(&UDATA)               USER DATA               @N01AE4A 08650000
.EA      AIF   (&EA EQ 0).PN           EXIT ADCON              @N01AE4A 08700000
         DC    A(&EXIT)                EXIT ADDRESS            @N01AE4A 08750000
.PN      AIF   (&PN EQ 0).MV           PATH NUMBER             @N01AE4A 08800000
         DC    AL2(&PATH)              PATH NUMBER             @N01AE4A 08850000
.MV      AIF   (&MV EQ 0).T            MSGLIM VALUE            @N01AE4A 08900000
         DC    AL2(&MSGLIM)            MESSAGE LIMIT           @N01AE4A 08950000
.T       AIF   (&T EQ 0).I             TARGET ID               @N01AE4A 09000000
         DC    CL8'&TRGTID(1). '       TARGET VMID             @N01AE4A 09050000
         DC    CL8'&TRGTID(2). '       TARGET NAME             @N01AE4A 09100000
.I       AIF   (&I EQ 0).MOVE2         USER (SOURCE) ID        @N01AE4A 09150000
         DC    CL8'&ID. '              USER NAME               @N01AE4A 09200000
&DISP    SETA  &DISP+8                 BUMP BY ID LENGTH       @N01AE4A 09250000
         MVC   8(8,1),*-&DISP          MOVE USER NAME          @N01AE4A 09300000
&DISP    SETA  &DISP+6                 BUMP BY INST LENGTH     @N01AE4A 09350000
.MOVE2   AIF   (&T EQ 0).MOVE3         TARGET ID               @N01AE4A 09400000
&DISP    SETA  &DISP+16                BUMP BY TRGTID LENGTH   @N01AE4A 09450000
         MVC   8(16,1),*-&DISP         MOVE VMID, NAME         @N01AE4A 09500000
&DISP    SETA  &DISP+6                 BUMP BY INST LENGTH     @N01AE4A 09550000
.MOVE3   AIF   (&MV EQ 0).MOVE4        MSGLIM VALUE            @N01AE4A 09600000
&DISP    SETA  &DISP+2                 BUMP BY MSGLIM LENGTH   @N01AE4A 09650000
         MVC   4(2,1),*-&DISP          MOVE MESSAGE LIMIT      @N01AE4A 09700000
&DISP    SETA  &DISP+6                 BUMP BY INST LENGTH     @N01AE4A 09750000
.MOVE4   AIF   (&PN EQ 0).MOVE5        PATH NUMBER             @N01AE4A 09800000
&DISP    SETA  &DISP+2                 BUMP BY PATH NUM LENGTH @N01AE4A 09850000
         MVC   0(2,1),*-&DISP          MOVE PATH NUMBER        @N01AE4A 09900000
&DISP    SETA  &DISP+6                 BUMP BY INST LENGTH     @N01AE4A 09950000
.MOVE5   AIF   (&EA EQ 0).MOVE6        EXIT ADCON              @N01AE4A 10000000
&DISP    SETA  &DISP+4                 BUMP BY ADCON LENGTH    @N01AE4A 10050000
         MVC   4(4,1),*-&DISP          MOVE EXIT ADDRESS       @N01AE4A 10100000
&DISP    SETA  &DISP+6                 BUMP BY INST LENGTH     @N01AE4A 10150000
.MOVE6   AIF   (&UD EQ 0).MOVE7        UDATA DATA              @N01AE4A 10200000
&DISP    SETA  &DISP+4                 BUMP BY ADCON LENGTH    @N01AE4A 10250000
         MVC   40(4,1),*-&DISP         MOVE USER DATA          @N01AE4A 10300000
&DISP    SETA  &DISP+6                 BUMP BY INST LENGTH     @N01AE4A 10350000
.MOVE7   AIF   (&VA EQ 0).FINISH1      VSIUCVU ADCON           @N01AE4A 10400000
&DISP    SETA  &DISP+4                 BUMP BY ADCON LENGTH    @N01AE4A 10450000
         MVC   44(4,1),*-&DISP         MOVE VSIUCVU ADDRESS    @N01AE4A 10500000
.FINISH1 AIF   (&ER EQ 0).STORE2       EXIT ADDR IN REG        @N01AE4A 10550000
         ST    &EXIT,4(,1)             STORE EXIT ADDRESS      @N01AE4A 10600000
.STORE2  AIF   (&MR EQ 0).STORE3       MSGLIM IN REG           @N01AE4A 10650000
         STH   &MSGLIM,4(,1)           STORE MESSAGE LIMIT     @N01AE4A 10700000
.STORE3  AIF   (&UR EQ 0).STORE4       USER DATA IN REG        @N01AE4A 10750000
         ST    &UDATA,40(,1)           STORE USER DATA         @N01AE4A 10800000
.STORE4  AIF   (&PR EQ 0).STORE5       PATH NUMBER IN REG      @N01AE4A 10850000
         STH   &PATH,0(,1)             STORE PATH NUMBER       @N01AE4A 10900000
.STORE5  AIF   (&VR EQ 0).FINISH2      VSIUCVU ADDR IN REG     @N01AE4A 10950000
         ST    &VSIUCVU,44(,1)         STORE VSIUCVU ADDR      @N01AE4A 11000000
.FINISH2 AIF   (&AND EQ 0).OR          NI REQUIRED             @N01AE4A 11050000
         NI    2(1),B'1&QA&PA.11111'   RESET FLAG(S)           @N01AE4A 11100000
.OR      AIF   (&OR EQ 0).SVC          OI REQUIRED             @N01AE4A 11150000
         OI    2(1),B'0&QO&PO.00000'   SET FLAG(S)             @N01AE4A 11200000
.SVC     SVC   141                     ISSUE IUCV SVC          @N01AE4A 11250000
         MEXIT                                                 @N01AE4A 11300000
.E1      MNOTE 12,'INVALID OP'                                 @N01AE4A 11350000
         MEXIT                                                 @N01AE4A 11400000
.E3      MNOTE 12,'ID AND EXIT VALID ONLY WITH OP=OPEN'        @N01AE4A 11450000
         MEXIT                                                 @N01AE4A 11500000
.E5      MNOTE 12,'OPERAND INVALID WITH OP'                    @N01AE4A 11550000
         MEXIT                                                 @N01AE4A 11600000
.E7      MNOTE 12,'CB IS REQUIRED OPERAND'                     @N01AE4A 11650000
         MEND                                                  @N01AE4A 11700000
