         MACRO ,                                               @N01AE4A 00050000
&NAME    VSIUCVU &ID=,&EXIT=0,&DSECT=NO                        @N01AE4A 00100000
         SPACE 1                                               @D37CDJB 00150000
         AGO .ZZZ                                                       00200000
***************************************************************         00250000
*        THIS MACRO CONTAINS "RESTRICTED MATERIALS OF IBM"    *         00300000
*        5686-007 (C) COPYRIGHT IBM CORP 1980,1988            *         00350000
*        ALL RIGHTS RESERVED                                  *         00400000
*        LICENSED MATERIALS-PROPERTY OF IBM                   *         00450000
.*       SEE COPYRIGHT INSTRUCTIONS, G120-2083                *         00500000
*                                                             *         00550000
***************************************************************         00600000
.ZZZ     ANOP                                                 *         00650000
.* A000000-999999                                             *@D37CDJB 00700000
         SPACE 1                                               @D37CDJB 00750000
         AIF   ('&DSECT' EQ 'YES').DSECT IF DSECT, GO GENERATE @N01AE4A 00800000
&NAME    DC    F'0'                    FLAGS, RESERVED         @N01AE4A 00850000
         DC    A(&EXIT)                EXIT ADDRESS            @N01AE4A 00900000
         DC    CL8'&ID. '              USER NAME (ID)          @N01AE4A 00950000
         MEXIT                                                 @N01AE4A 01000000
.DSECT   ANOP                                                  @N01AE4A 01050000
&NAME    DSECT ,                       IUCV USER BLOCK         @N01AE4A 01100000
         SPACE 1                                               @N01AE4A 01150000
VIUFLG1  DS    X                       FLAGS                   @N01AE4A 01200000
VIUOPEN  EQU   X'80'                   VSIUCVU IS OPEN         @N01AE4A 01250000
*        EQU   X'40'                   RESERVED                @N01AE4A 01300000
*        EQU   X'20'                   RESERVED                @N01AE4A 01350000
*        EQU   X'10'                   RESERVED                @N01AE4A 01400000
*        EQU   X'08'                   RESERVED                @N01AE4A 01450000
*        EQU   X'04'                   RESERVED                @N01AE4A 01500000
*        EQU   X'02'                   RESERVED                @N01AE4A 01550000
*        EQU   X'01'                   RESERVED                @N01AE4A 01600000
         SPACE 1                                               @N01AE4A 01650000
         DS    XL3                     RESERVED                @N01AE4A 01700000
         SPACE 1                                               @N01AE4A 01750000
VIUEXIT  DS    A                       EXIT ADDRESS            @N01AE4A 01800000
         SPACE 1                                               @N01AE4A 01850000
VIUNAME  DS    CL8                     USER NAME (ID)          @N01AE4A 01900000
         MEND                                                  @N01AE4A 01950000
