         MACRO                                                 @N01AE4A 00050000
&NAME    VSIUCVPL &DSECT=NO,           DSECT OR REAL BLOCK     @N01AE4AX00100000
               &VSIUCVU=0,             VSIUCVU ADDRESS         @N01AE4AX00150000
               &TRGTID=,               TARGET VMID, NAME       @N01AE4AX00200000
               &PATH=0,                PATH NUMBER             @N01AE4AX00250000
               &UDATA=0,               USER DATA               @N01AE4AX00300000
               &PRTY=NO,               PRIORITY MESSAGES       @N01AE4AX00350000
               &QUIES=NO,              QUIESCE MODE            @N01AE4AX00400000
               &MSGLIM=0               MESSAGE LIMIT           @N01AE4A 00450000
         LCLB  &P,&Q                                           @N01AE4A 00500000
               SPACE 1                                         @D37CDJB 00550000
         AGO .ZZZ                                                       00600000
***************************************************************         00650000
*        THIS MACRO CONTAINS "RESTRICTED MATERIALS OF IBM"    *         00700000
*        5686-007 (C) COPYRIGHT IBM CORP 1980,1988            *         00750000
*        ALL RIGHTS RESERVED                                  *         00800000
*        LICENSED MATERIALS-PROPERTY OF IBM                   *         00850000
.*       SEE COPYRIGHT INSTRUCTIONS, G120-2083                *         00900000
***************************************************************         00950000
.ZZZ     ANOP                                                 *         01000000
.* A000000-999999                                             *@D37CDJB 01050000
*                                                             *         01100000
               SPACE 1                                         @D37CDJB 01150000
         AIF   ('&DSECT' EQ 'YES').DSECT IF DSECT, GO DO IT    @N01AE4A 01200000
&NAME    DC    0D'0'                   DOUBLE WORD BOUNDARY    @N01AE4A 01250000
         DC    AL2(&PATH)              PATH NUMBER             @N01AE4A 01300000
         AIF   ('&PRTY' EQ 'NO').Q                             @N01AE4A 01350000
&P       SETB  1                       SET PRIORITY FLAG       @N01AE4A 01400000
.Q       AIF   ('&QUIES' EQ 'NO').FLAGS                        @N01AE4A 01450000
&Q       SETB  1                       SET QUIESCE MODE FLAG   @N01AE4A 01500000
.FLAGS   DC    B'0&Q&P.00010'          FLAGS                   @N01AE4A 01550000
         DC    X'00'                   RETURN CODE             @N01AE4A 01600000
         DC    AL2(&MSGLIM)            MESSAGE LIMIT           @N01AE4A 01650000
         DC    XL2'0000'               RESERVED                @N01AE4A 01700000
         DC    CL8'&TRGTID(1). '       TARGET VMID             @N01AE4A 01750000
         DC    CL8'&TRGTID(2). '       TARGET NAME             @N01AE4A 01800000
         DC    CL8' '                  SOURCE NAME             @N01AE4A 01850000
         DC    XL8'00'                 RESERVED                @N01AE4A 01900000
         DC    A(&UDATA)               USER DATA               @N01AE4A 01950000
         DC    A(&VSIUCVU)             VSIUCVU ADDRESS         @N01AE4A 02000000
         DC    X'00'                   OP CODE                 @N01AE4A 02050000
         DC    X'00'                   FLAGS                   @N01AE4A 02100000
         DC    XL6'00'                 RESERVED                @N01AE4A 02150000
         MEXIT                                                 @N01AE4A 02200000
.DSECT   ANOP                                                  @N01AE4A 02250000
&NAME    DSECT ,                       IUCV PARAMETER LIST     @N01AE4A 02300000
         SPACE 1                                               @N01AE4A 02350000
VILPATH  DS    AL2                     PATH ID                 @N01AE4A 02400000
         SPACE 1                                               @N01AE4A 02450000
VILFLAGS DS    X                       FLAGS                   @N01AE4A 02500000
*        EQU   X'80'                   MAY NOT BE USED         @N01AE4A 02550000
VILQUSCE EQU   X'40'                   CONNECT QUIESCED        @N01AE4A 02600000
VILPRTY  EQU   X'20'                   PRIORITY MSGS ALLOWED   @N01AE4A 02650000
*        EQU   X'10'                   NOT APPLICABLE          @N01AE4A 02700000
*        EQU   X'08'                   NOT APPLICABLE          @N01AE4A 02750000
*        EQU   X'04'                   NOT APPLICABLE          @N01AE4A 02800000
VILFGPID EQU   X'02'                   PATH ID SPECIFIED       @N01AE4A 02850000
*        EQU   X'01'                   NOT APPLICABLE          @N01AE4A 02900000
         SPACE 1                                               @N01AE4A 02950000
VILRCODE DS    X                       RETURN CODE             @N01AE4A 03000000
         SPACE 1                                               @N01AE4A 03050000
VILMLIM  DS    AL2                     MESSAGE LIMIT           @N01AE4A 03100000
VILFCNCD DS    X                       NOT APPLICABLE          @N01AE4A 03150000
         DS    X                       RESERVED                @N01AE4A 03200000
         SPACE 1                                               @N01AE4A 03250000
VILVMID  DS    CL8                     TARGET VMID             @N01AE4A 03300000
VILTRGT  DS    CL8                     TARGET NAME             @N01AE4A 03350000
VILSRCE  DS    CL8                     SOURCE NAME             @N01AE4A 03400000
         DS    XL8                     RESERVED                @N01AE4A 03450000
         SPACE 1                                               @N01AE4A 03500000
VILUDATA DS    F                       USER DATA               @N01AE4A 03550000
VILVIU   DS    A                       VSIUCVU ADDRESS         @N01AE4A 03600000
         SPACE 1                                               @N01AE4A 03650000
VILOPCD  DS    X                       OP CODE                 @N01AE4A 03700000
VILFLG1  DS    X                       FLAGS                   @N01AE4A 03750000
         SPACE 1                                               @N01AE4A 03800000
         DS    XL6                     RESERVED                @N01AE4A 03850000
         MEND                                                  @N01AE4A 03900000
