         MACRO                                                          00050000
&NAME    WAIT  &CCB,&ECB=,&ECBLIST=                                     00100000
.*       IBM  DISK OPERATING SYSTEM                                     00150000
*        SUPERVISOR - WAIT - 5686-007-06 - C44                          00200000
         AGO   .ZZZ                                            @D31UDMZ 00250000
*        THIS MACRO IS "RESTRICTED MATERIALS OF IBM"           @D31UDMZ 00300000
*        5686-007 (C) COPYRIGHT IBM CORP. 1977,1989            @D31UDMZ 00350000
*        ALL RIGHTS RESERVED                                   @D31UDMZ 00400000
*        LICENSED MATERIALS-PROPERTY OF IBM                    @D31UDMZ 00450000
*        SEE COPYRIGHT INSTRUCTIONS, G120-2083                 @D31UDMZ 00500000
.ZZZ     ANOP                                                  @D31UDMZ 00550000
&NAME    IWAIT &CCB,ECB=&ECB,ECBLIST=&ECBLIST                  @D62ADWS 00600000
         MEND                                                           01550000
