         MACRO                                                          00050000
&NAME    WAITM &OP1,&OP2,&OP3,&OP4,&OP5,&OP6,&OP7,&OP8,&OP9,&OP10,&OP11*00100000
               ,&OP12,&OP13,&OP14,&OP15,&OP16,&OP17                     00150000
         LCLA  &AL1                                                     00200000
         LCLA  &AL2                                                     00250000
         LCLC  &ADDR                                                    00275052
.*       IBM  DISK OPERATING SYSTEM                                     00300000
*        SUPERVISOR - WAITM - 5686-007-06 - C44                         00350000
         AGO   .ZZZ                                            @D31UDMZ 00400000
*        THIS MACRO IS "RESTRICTED MATERIALS OF IBM"           @D31UDMZ 00450000
*        5686-007 (C) COPYRIGHT IBM CORP. 1977,1989            @D31UDMZ 00500000
*        ALL RIGHTS RESERVED                                   @D31UDMZ 00550000
*        LICENSED MATERIALS-PROPERTY OF IBM                    @D31UDMZ 00600000
*        SEE COPYRIGHT INSTRUCTIONS, G120-2083                 @D31UDMZ 00650000
.ZZZ     ANOP                                                  @D31UDMZ 00700000
         AIF   ('&NAME' EQ '').NOMSG                                    00750000
&NAME    DS    0H                                                   3-5 00800000
.NOMSG   ANOP                                                           00850000
         AIF   ('&OP1' NE '').C1                                        00900000
         MNOTE 5,'OPERAND MISSING - MACRO IGNORED'                      00950000
         MEXIT                                                          01000000
.C1      AIF   ('&OP2' NE '').C2                                        01050000
         AIF   ('&OP1'(1,1) EQ '(').R1                                  01100000
         L     1,=A(&OP1)                                               01150000
         AGO   .SVC                                                     01200000
.R1      AIF   ('&OP1'(2,2) EQ '1)').SVC                                01250000
         LR    1,&OP1(1)                                                01300000
         AGO   .SVC                                                     01350000
.C2      ANOP                                                           01400000
         CNOP  0,4                                                      01450000
&AL1     SETA  2                                                        01500000
.LOOP1   AIF   ('&SYSLIST(&AL1)' EQ '').ON                              01550000
&AL1     SETA  &AL1+1                                                   01600000
         AIF   (&AL1 LE 17).LOOP1                                       01650000
         MNOTE 3,'MORE THAN 16 OPERANDS SPECIFIED - 16 PROCESSED ONLY'  01700000
&AL1     SETA  17                                                       01750000
.ON      ANOP                                                           01800000
&AL2     SETA  1                                                        01850000
         LA    1,*+12                                          @D52VDOW 01875052
         OI    *+8+4*(&AL1-1),X'80'                            @D52VDOW 01900052
         B     *+12+4*(&AL1-1)                                 @D52VDOW 01925052
.LOOP2   DC    A(&SYSLIST(&AL2))                                        01950000
&AL2     SETA  &AL2+1                                                   02000000
         AIF   (&AL2 EQ &AL1).DECB                             @D52VDOW 02050052
         AGO   .LOOP2                                                   02100000
.DECB    DC    A(*+4)                DUMMY ECB ADDR            @D52VDOW 02116652
         DC    A(0)                  DUMMY ECB                 @D52VDOW 02133252
.SVC     SVC   29                                                       02150000
         MEND                                                           02200000
