         MACRO                                                          00050000
&NAME    WRITEHCF &FORCE=NO,&DUMP=NO                                    00100000
         LCLA  &AL1                                                     00150000
*        SUPERVISOR - WRITEHCF - 5686-066-06                   @D61CDUG 00196161
         AGO   .NOCOPY                                         @D61CDUG 00242261
.*                                                                      00288361
*********************************************************************** 00334461
*                                                                       00380561
*        LICENSED MATERIALS - PROPERTY OF IBM                  @D61CDUG 00426661
*        "RESTRICTED MATERIALS OF IBM"                         @D61CDUG 00472761
*        5686-066 (C) COPYRIGHT IBM CORP. 1980, 1994           @D61CDUG 00518861
*                                                                       00564961
*********************************************************************** 00611061
.NOCOPY  ANOP                                                  @D61CDUG 00657161
.*                                                             @D61CDUG 00703261
.* /* START OF SPECIFICATIONS ***************************************** 00750000
.*                                                                      00800000
.*01* MODULE NAME = WRITEHCF                                            00850000
.*                                                                      00900000
.*01* MODULE TYPE = HARD COPY FILE COMMUNICATION MACRO                  00950000
.*                                                                      01000000
.*01* DESCRIPTIVE NAME = WRITE ONE RECORD ON HARD COPY FILE             01050000
.*                                                                      01100000
.*01* NOTES = NEW MODULE FOR DOS /VSE AF 1.3                            01150000
.*              HARD COPY FILE SUPPORT                                  01200000
.*                                                                      01250000
.*01* CHANGE ACTIVITIES = AS FOLLOWS                                    01300000
.*             BLOCKED HARD COPY FILE                          @D37ADRP 01350000
.*A000000-999999                                               @D37ADRP 01400000
.*                                                                      01450000
.* /* END OF SPECIFICATION ******************************************** 01500000
.*                                                                      01550000
.*   R2=24 INDICATION FOR WRITEHCF SERVICE FORCE=NO                     01600000
.*   R2=28 INDICATION FOR WRITEHCF SERVICE FORCE=YES                    01650000
.*                                                                      01700000
         AIF   (N'&SYSLIST GT 1).ERR                                    01750000
&NAME    DS    0H                                                       01800000
         AIF   ( '&FORCE' EQ 'NO').NFORCE                               01850000
         AIF   ( '&FORCE' NE 'YES').NOFORCE                             01900000
&AL1     SETA  28                 INDICATE FORCE=YES                    01950000
         AGO   .GENBAL                                                  02000000
.NOFORCE MNOTE 3,'FORCE PARAMETER INCORRECT SPECIFIED, FORCE=NO ASSUMED*02050000
               '                                                        02100000
.NFORCE  AIF   (N'&SYSLIST NE 1).ERR                                    02150000
&AL1     SETA  24                 INDICATE WRITEHCF                     02200000
         AIF   ('&SYSLIST(1)'(1,1) EQ '(').R1                           02250000
         L     0,=A(&SYSLIST(1))  GET ADDR OF IO-AREA                   02300000
         AGO   .GENBAL                                                  02350000
.R1      ANOP                                                           02400000
         AIF   ('&SYSLIST(1)'(2,2) EQ '0)').GENBAL                      02450000
         LR    0,&SYSLIST(1,1)    GET ADDR OF IO-AREA                   02500000
.GENBAL  ANOP                                                           02550000
         AIF   ('&DUMP' EQ 'YES').DMP                                   02600000
         ASYSCOM 2                                                      02650000
         ICM   2,7,X'35'(2)       GET 24 BIT ADDR OF CRTTAB    @D61CDUG 02700061
         L     15,X'24'(2)        GET MODULE ADDR                       02750000
         AGO   .NODMP                                                   02800000
.DMP     ANOP                                                           02850000
         L     15,ACONTROL        GET ENTRY POINT ADDR                  02900000
.NODMP   ANOP                                                           02950000
         LA    2,&AL1                                                   03000000
         BAL   14,8(15)           INVOKE WRITEHCF SERVICE               03050061
         MEXIT                                                          03100000
.ERR     MNOTE 5,'INCORRECT POS. OPERANDS SPECIFIED IN WRITEHCF MACRO I*03150000
               NSTRUCTION, GENERATION TERMINATED'                       03200000
         MEND                                                           03250000
