         MACRO                                                          00050000
&NAME    WRTBFR &RPL=,&TYPE=                                            00100000
* VSAM - WRTBFR - 5745-SC-VSM(G07) - REL.  1.0                          00150000
.*********************************************************************  00200000
.*                                                                      00250000
.* LAST REVISED 75/10/31                                                00300000
.*                                                                      00350000
.* MODULE NAME                                                          00400000
.*        WRTBFR                                                        00450000
.*                                                                      00500000
.* DESCRIPTIVE NAME                                                     00550000
.*        WRITE BUFFER                                                  00600000
.*                                                                      00650000
.* COPYRIGHT                                                            00700000
.*        NONE                                                          00750000
.*                                                                      00800000
.* STATUS                                                               00850000
.*        RELEASE 1, VERSION 00                                         00900000
.*                                                                      00950000
.* FUNCTION                                                             01000000
.*                                                                      01050000
.*        BUILDS CALLING SEQUENCE FOR THE VSAM FUNCTION 'WRTBFR'        01100000
.*                                                                      01150000
.* NOTES                                                                01200000
.*        DEPENDENCIES                                                  01250000
.*              CAN BE USED ONLY FOR VSAM DATA SETS                     01300000
.*                                                                      01350000
.*        RESTRICTIONS                                                  01400000
.*              NONE                                                    01450000
.*                                                                      01500000
.*        REGISTER CONVENTIONS                                          01550000
.*              R0...CONTAINS TYPE CODE AND WRTBFR CODE (X'2C')         01600000
.*              R1...ADDRESS OF RPL                                     01650000
.*              R13..ADDRESS OF 72 BYTE SAVE AREA                       01700000
.*              R14..RETURN ADDRESS                                     01750000
.*              R15..ADDRESS OF VSAM MODULE TO BE CALLED                01800000
.*                                                                      01850000
.*        PATCH LABEL                                                   01900000
.*              NA                                                      01950000
.*                                                                      02000000
.*        SPECIAL TERMS AND ACRONYMS                                    02050000
.*              NONE                                                    02100000
.*                                                                      02150000
.* MODULE-TYPE                                                          02200000
.*        BAL MACRO                                                     02250000
.*                                                                      02300000
.*        PROCESSOR                                                     02350000
.*              /370 ASSEMBLER                                          02400000
.*                                                                      02450000
.*        MODULE-SIZE                                                   02500000
.*              NA                                                      02550000
.*                                                                      02600000
.*        ATTRIBUTES                                                    02650000
.*              NA                                                      02700000
.*                                                                      02750000
.* ENTRY-POINT                                                          02800000
.*        NA                                                            02850000
.*                                                                      02900000
.*        PURPOSE                                                       02950000
.*              SEE FUNCTION                                            03000000
.*                                                                      03050000
.*        LINKAGE                                                       03100000
.*              NA                                                      03150000
.*                                                                      03200000
.* INPUT                                                                03250000
.*        SEE PROTOTYPE STATEMENT                                       03300000
.*                                                                      03350000
.* OUTPUT                                                               03400000
.*        NA                                                            03450000
.*                                                                      03500000
.* EXIT-NORMAL                                                          03550000
.*      NA                                                              03600000
.*                                                                      03650000
.* EXIT-ERROR                                                           03700000
.*      MNOTES:                                                         03750000
.*      1)   4,'IKQ001 INVALID POSITIONAL PARAMETER &B-IGNORED'         03800000
.*      2)  12,'IKQ002 &B KEYWORD REQUIRED-NOT SPECIFIED'               03850000
.*      3)  12,'IKQ003 INVALID VALUE,&C, SPECIFIED FOR &B KEYWORD'      03900000
.*                                                                      03950000
.* EXTERNAL REFERENCES                                                  04000000
.*        ROUTINES                                                      04050000
.*              VSAM ROUTINE FOR 'WRTBFR'                               04100000
.*        DATA-AREAS                                                    04150000
.*              NONE                                                    04200000
.*        CONTROL-BLOCKS                                                04250000
.*              RPL                                                     04300000
.*                                                                      04350000
.* TABLES                                                               04400000
.*        NONE                                                          04450000
.*                                                                      04500000
.* MACROS                                                               04550000
.*        IKQERMAC                                                      04600000
.*                                                                      04650000
.* CHANGE ACTIVITY                                                      04700000
.*        NONE                                                          04750000
.*                                                                      04800000
.********************************************************************** 04850000
         LCLA  &CODE                    CODE ACCUMULATOR                04900000
         LCLA  &I,&J                    WORK VARIABLE                   04950000
         LCLB  &LRU                     TYPE=LRU INDICATOR              05000000
         LCLB  &ERR                     ERROR INDICATOR                 05050000
         LCLB  &LRUREG                  REGISTER FORM OF LRU            05100000
         LCLB  &LRUR0                   PERCENT IS IN REG 0             05150000
         LCLC  &LRUPCT                  LRU VALUE                       05200000
         AIF   (N'&SYSLIST EQ 0).NOPOS  GO IF NO POSITIONAL OPERANDS    05250000
.POSLOOP ANOP                                                           05300000
&I       SETA  &I+1                     POINT TO NEXT POS OPERAND       05350000
         IKQERMAC 1,&SYSLIST(&I)        ISSUE WARNING MNOTE             05400000
         AIF   (&I LT N'&SYSLIST).POSLOOP  GO IF MORE POS OPERANDS      05450000
.NOPOS   ANOP                                                           05500000
         AIF   ('&RPL' NE '').ROKY      GO IF RPL SPECIFIED             05550000
         IKQERMAC 2,RPL                 ISSUE ERROR MNOTE               05600000
&ERR     SETB  1                        INDICATE ERROR                  05650000
.ROKY    ANOP                                                           05700000
         AIF   ('&TYPE' NE '').TOKY     GO IF TYPE NOT SPECIFIED NULL   05750000
         IKQERMAC 2,TYPE                ISSUE ERROR MNOTE               05800000
&ERR     SETB  1                        INDICATE ERROR                  05850000
         AGO   .TYPEB                   GO AROUND TYPE ANALYSIS         05900000
.TOKY    ANOP                                                           05950000
         AIF   ('&TYPE' NE 'DS').TDSB   GO IF NOT FOR DATA SET          06000000
&CODE    SETA  64*256                   INDICATE DATA SET               06050000
         AGO   .TYPEB                   GO AROUND TYPE ANALYSIS         06100000
.TDSB    ANOP                                                           06150000
         AIF   (K'&TYPE LT 6).TLRUB     GO IF NOT AT LEAST 6 CHARS      06200000
         AIF   ('&TYPE'(1,4) NE 'LRU(').TLRUB  GO IF NOT LEAST RCNT USD 06250000
&I       SETA  K'&TYPE                  POINT TO LAST CHARACTER         06300000
         AIF   ('&TYPE'(&I,1) NE ')').TLRUB  GO IF LAST CHAR NOT ')'    06350000
         AIF   ('&TYPE'(5,1) NE '(').NOREG  GO IF NOT REG FORM          06400000
         AIF   ('&TYPE'(6,1) NE '1').REGOK  OK IF NOT 1 OR 13           06450000
         AIF   ('&TYPE'(7,1) EQ '3').TLRUB  ERROR IF REG 13             06500000
         AIF   ('&TYPE'(7,1) EQ ')').TLRUB  ERROR IF REG 1              06550000
.REGOK   ANOP                                                           06600000
         AIF   ('&TYPE'(6,1) NE '0').NOTR0  GO IF NOT REGISTER ZERO     06650000
         AIF   ('&TYPE'(7,1) NE ')').NOTR0  GO IF NOT REGISTER ZERO     06700000
&LRUR0   SETB  1                        INDICATE PERCENTAGE IS IN REG 0 06750000
.NOTR0   ANOP                                                           06800000
&LRUREG  SETB  1                        INDICATE REGISTER FORM          06850000
.NOREG   ANOP                                                           06900000
&LRU     SETB  1                        INDICATE LEAST                  06950000
&CODE    SETA  32*256                   ..RECENTLY USED                 07000000
         AIF   (&LRUREG).REGOK1         GO IF REGISTER FORM             07050000
&I       SETA  K'&TYPE-5                CALC LENGTH OF N IN LRU(N)      07100000
&LRUPCT  SETC  '&TYPE'(5,&I)            PICK UP PERCENT OF BUFFERS      07150000
         AIF   (&I LE 0).PCTER          WRONG PERCENT VALUE             07200000
         AIF   (&I GT 3).PCTER          WRONG PERCENT VALUE             07250000
&J       SETA  0                                                        07300000
.PCT1    ANOP                                                           07350000
&J       SETA  &J+1                                                     07400000
         AIF   ('&TYPE'(4+&J,1) LT '0').PCTER PERCENT VALUE NOT DECIMAL 07450000
         AIF   ('&TYPE'(4+&J,1) GT '9').PCTER PERCENT VALUE NOT DECIMAL 07500000
         AIF   (&J LT &I).PCT1          LOOP,CHECK NEXT DIGIT           07550000
         AIF   (&I LT 3).PCT2           OK,IF ONLY 2 DIGITS             07600000
         AIF   ('&TYPE'(5,1) EQ '0').PCT2 OK,IF THIRD DIGIT=0           07650000
         AIF   ('&TYPE'(5,3) EQ '100').PCT2 OK,IF PERCENT VALUE=100     07700000
.PCTER   IKQERMAC 3,TYPE,&TYPE          INVALID PERCENT SPECIFICATION   07750000
&ERR     SETB  1                        ERROR INDIC                     07800000
.PCT2    ANOP                                                           07850000
         AGO   .TYPEB                   GO AROUND TYPE ANALYSIS         07900000
.REGOK1  ANOP                                                           07950000
&I       SETA  K'&TYPE-7                CALC LENGTH OF N IN LRU((N))    08000000
&LRUPCT  SETC  '&TYPE'(6,&I)            PICK UP PERCENT OF BUFFERS      08050000
         AGO   .TYPEB                                                   08100000
.TLRUB   ANOP                                                           08150000
         AIF   ('&TYPE' NE 'ALL').TALLB  GO IF NOT FOR ALL BUFFERS      08200000
&CODE    SETA  16*256                   INDICATE ALL BUFFERS            08250000
         AGO   .TYPEB                   GO AROUND TYPE ANALYSIS         08300000
.TALLB   ANOP                                                           08350000
         AIF   ('&TYPE' NE 'TRN').TTRNB  GO IF NOT FOR TRANSACTION      08400000
&CODE    SETA  8*256                    INDICATE TRANSACTION            08450000
         AGO   .TYPEB                   GO AROUND TYPE ANALYSIS         08500000
.TTRNB   ANOP                                                           08550000
         IKQERMAC 3,TYPE,&TYPE          ISSUE ERROR MNOTE               08600000
&ERR     SETB  1                        INDICATE ERROR                  08650000
.TYPEB   ANOP                                                           08700000
         AIF   (&ERR).END               GO IF ANY ERRORS                08750000
         AIF   ('&NAME' EQ '').NAMEB    GO IF NO NAME                   08800000
&NAME    DS    0H                                                       08850000
.NAMEB   ANOP                                                           08900000
         AIF   ('&RPL'(1,1) EQ '(').RPLR  GO IF RPL SPECIFIED AS REG    08950000
         LA    1,&RPL                   LOAD RPL ADDRESS                09000000
         AGO   .AREG                    GO AROUND REG CODE              09050000
.RPLR    ANOP                                                           09100000
         AIF   ('&RPL' EQ '(1)').AREG   GO IF RPL ADDRESS ALREADY IN 1  09150000
         LR    1,&RPL(1)                LOAD RPL ADDRESS                09200000
.AREG    ANOP                                                           09250000
         AIF   (NOT &LRU).LRUB          GO IF NOT LEAST RECENTLY USED   09300000
         AIF   (&LRUREG).REG            BRANCH IF REGISTER FORM         09350000
         LA    0,&LRUPCT                LOAD PERCENT OF BUFFERS         09400000
         AGO   .LRUOK                                                   09450000
.REG     ANOP                                                           09500000
         AIF   (&LRUR0).LRUOK           GO IF ALREADY IN REG 0          09550000
         LR    0,&LRUPCT                LOAD PERCENT OF BUFFERS         09600000
         LA    14,100                   SET HIGHEST POSSIBLE % VALUE    09650000
         CR    0,14                     PERCENT VALUE GT 100            09700000
         BH    *+12                     INVALID PERCENT VALUE           09750000
         SLA   0,16                     SHIFT LEFT 2 BYTES,VALUE LT 0   09800000
         BNL   *+12                     INVALID PERCENT VALUE           09850000
         LA    0,101                    SET INVALID PERCENT INDICATOR   09900000
         SLA   0,16                     FOR WRTBFR ROUTINE              09950000
         AGO   .LRUA                                                    10000000
.LRUOK   ANOP                                                           10050000
         SLL   0,16                     SHIFT TO HIGH ORDER             10100000
.LRUA    ANOP                                                           10150000
         ICM   0,3,*+18                 INSERT WRITE BUFFER CODES       10200000
         AGO   .NLRUB                   GO AROUND NOT LRU CODE          10250000
.LRUB    ANOP                                                           10300000
         LH    0,*+18                   LOAD WRITE BUFFER CODES         10350000
.NLRUB   ANOP                                                           10400000
         L     15,24(,1)                LOAD ACB ADDRESS FROM RPL       10450000
         L     15,8(,15)                LOAD VSAM INTERFACE RTN ADDR    10500000
         LA    14,*+8                   LOAD RETURN ADDRESS             10550000
         BR    15                       BRANCH TO INTERFACE ROUTINE     10600000
&CODE    SETA  &CODE+44                 INDICATE WRITE BUFFER (X'2C')   10650000
         DC    AL2(&CODE)               WRITE BUFFER CODES              10700000
.END     ANOP                                                           10750000
         MEND                                                           10800000
