* %/*                                                          @ZMC0828 00025000
         MACRO                                                          00050000
&NAME    WTO   &MESG,&MF=I,&ROUTCDE=,&DESC=,&MSGTYP=,&MCSFLAG=,&QID=,  X00100000
               &AREAID=,&SUBSMOD=,&CONNECT=¬,&CONSID=¬,&JOBID=¬,       X00150000
               &JOBNAME=¬,&KEY=¬,&TOKEN=¬,&PRTY=¬,&SYSNAME=¬,          X00200000
               &WQEBLK=¬,&CONSNAME=¬,&CART=¬,&TEXT=¬,&LINKAGE=¬,       +00250000
               &SYNCH=¬,&WSPARM=¬                                  @01C 00300000
.********************************************************************** 03350000
.*                                                             @G64DPSS 03390600
.* MACRO NAME= WTO                                             @G860PSS 03431200
.*                                                             @G860PSS 03471800
.* DESCRIPTIVE NAME= WRITE TO OPERATOR (WTO)                   @G860PSS 03512400
.*                                                             @G860PSS 03553000
.* COPYRIGHT =                                                     @L3C 03593600
.*             5695-047                                            @L6C 03634200
.*             THIS MODULE IS "RESTRICTED MATERIALS OF IBM"             03674800
.*             (C) COPYRIGHT IBM CORP. 1981, 1990                       03715400
.*             LICENSED MATERIALS -PROPERTY OF IBM                      03756000
.*                                                                      03796600
.* STATUS    = HBB4410                                             @02C 03837200
.*                                                                      03877800
.* INVOCATION =                                                    @L2C 03918400
.*             SPECIFY:   WTO MESG,ROUTCDE=,DESC=,MSGTYP=,     @G64DPSS 03959000
.*                            MCSFLAG=,QID=,AREAID=,MF=,           @L2C 03999600
.*                            CONNECT=,CONSID=,JOBID=,             @D2C 04040200
.*                            PRTY=,KEY=,TOKEN=,SYSNAME=,          @L2A 04080800
.*                            SUBSMOD=,JOBNAME=,                   @01C 04121400
.*                            CONSNAME=,CART=,TEXT=,LINKAGE=,      @L6C 04162000
.*                            SYNCH=,WSPARM=                       @L6A 04202600
.*                                                                      04243200
.*                                     OR                          @L2A 04283800
.*                                                                      04324400
.*                        WTO WQEBLK=                              @L2A 04365000
.*                                                                      04405600
.*              WHERE:                                         @G64DPSS 04446200
.*                MESG     THE MESSAGE TEXT FOR A SINGLE OR    @G64DPSS 04486800
.*                         MULTIPLE LINE MESSAGE TO BE         @G64DPSS 04527400
.*                         WRITTEN.                            @G64DPSS 04568000
.*                ROUTCDE= ROUTING CODES TO BE ASSIGNED TO THE @G64DPSS 04608600
.*                         MESSAGE.                            @G64DPSS 04649200
.*                                                             @G64DPSS 04689800
.*                DESC=    DESCRIPTOR CODES TO BE ASSIGNED TO  @G64DPSS 04730400
.*                         THE MESSAGE.                        @G64DPSS 04771000
.*                                                             @G64DPSS 04811600
.*                MSGTYP=  SPECIFIES HOW THE MESSAGE IS TO BE  @G64DPSS 04852200
.*                         ROUTED. VALID VALUES ARE:           @G64DPSS 04892800
.*                           N, Y, SESS, JOBNAMES, STATUS      @G64DPSS 04933400
.*                                                             @G64DPSS 04974000
.*                MCSFLAG= SPECIFIES ATTRIBUTES OF THE         @G64DPSS 05014600
.*                         MESSAGE. VALID VALUES ARE:          @G64DPSS 05055200
.*                           REG0, RESP, REPLY, BRDCST,        @G64DPSS 05095800
.*                           HRDCPY, QREG0, NOTIME, CMD, NOCPY,    @L2C 05136400
.*                           BUSYEXIT                              @D2C 05177000
.*                                                             @G64DPSS 05217600
.*                QID=     REMOTE ENTRY SERVICES (RSS) QUEUE   @G64DPSS 05258200
.*                         ID (OS/VS1 ONLY).                   @G64DPSS 05298800
.*                                                             @G64DPSS 05339400
.*                AREAID=  SPECIFIES A DISPLAY AREA ON THE     @G64DPSS 05380000
.*                         CONSOLE WHERE THE MESSAGE IS TO BE  @G64DPSS 05420600
.*                         WRITTEN.                            @G64DPSS 05461200
.*                                                             @G64DPSS 05501800
.*                MF=      SPECIFIES THE TYPE OF EXPANSION     @G64DPSS 05542400
.*                         REQUIRED. VALID VALUES ARE:         @G64DPSS 05583000
.*                           I, L, E                           @G64DPSS 05623600
.*                         IF NOT SPECIFIED, OR SPECIFIED WITHOUT  @L2A 05664200
.*                         DATA, STANDARD FORM (I-INLINE)          @L2A 05704800
.*                         ASSUMED.                                @L2A 05745400
.*                                                             @G64DPSS 05786000
.*                CONNECT= SPECIFIES THE 4-BYTE MESSAGE NUMBER     @L2A 05826600
.*                         OF THE MULTI-LINE WTO THAT THIS         @L2A 05867200
.*                         WTO IS TO BE CONNECTED TO.  IF A        @L2A 05907800
.*                         REGISTER IS USED, THE REGISTER          @L2A 05948400
.*                         CONTAINS THE MESSAGE NUMBER.  THIS      @L2A 05989000
.*                         KEYWORD IS MUTUALLY EXCLUSIVE WITH      @L2A 06029600
.*                         THE CONSID, CONSNAME AND                @01C 06070200
.*                         SYSNAME KEYWORDS.                       @L2A 06110800
.*                         ONLY VALID FOR CONTINUATION OF          @L2A 06151400
.*                         MULTI-LINE MESSAGES.                    @L2A 06192000
.*                                                                      06232600
.*                CONSID=  SPECIFIES THE 4-BYTE ID OF THE          @L2A 06273200
.*                         CONSOLE TO RECEIVE A MESSAGE.           @L2A 06313800
.*                         IF A REGISTER IS USED, THE REGISTER     @L2A 06354400
.*                         CONTAINS THE 4-BYTE ID.                 @L2A 06395000
.*                         THIS KEYWORD IS MUTUALLY EXCLUSIVE      @L2A 06435600
.*                         WITH THE CONNECT AND CONSNAME KEYWORD.  @L3C 06476200
.*                                                                      06516800
.*              CONSNAME=  SPECIFIES THE 8-BYTE NAME OF THE        @L3A 06557400
.*                         CONSOLE TO RECEIVE A MESSAGE.           @L3A 06598000
.*                         IF A REGISTER IS USED, THE REGISTER     @L3A 06638600
.*                         CONTAINS THE ADDRESS OF THE 8-BYTE      @L3A 06679200
.*                         CONSOLE NAME.                           @L3A 06719800
.*                         THIS KEYWORD IS MUTUALLY EXCLUSIVE      @L3A 06760400
.*                         WITH THE CONNECT AND CONSNAME KEYWORD.  @L3A 06801000
.*                                                                      06841600
.*                JOBID=   SPECIFIES THE 8-BYTE ID WITH WHICH      @L2A 06882200
.*                         THE JES IDENTIFIES THE ISSUER OF        @L2A 06922800
.*                         THIS WTO.  THE KEYWORD IS FOR USE BY    @L2A 06963400
.*                         JES2 AND JES3.  IF A REGISTER IS USED,  @L2A 07004000
.*                         THE REGISTER CONTAINS THE ADDRESS OF    @L2A 07044600
.*                         THE 8-BYTE ID.                          @L2A 07085200
.*                                                                      07125800
.*                JOBNAME= SPECIFIES THE 8-BYTE NAME WITH WHICH    @L2A 07166400
.*                         THE JES IDENTIFIES THE ISSUER OF        @L2A 07207000
.*                         THIS WTO.  THE KEYWORD IS FOR USE BY    @L2A 07247600
.*                         JES2 AND JES3.  IF A REGISTER IS USED   @L2A 07288200
.*                         THE REGISTER CONTAINS THE ADDRESS OF    @L2A 07328800
.*                         THE 8-BYTE NAME.                        @L2A 07369400
.*                                                                      07410000
.*                SUBSMOD= INDICATES WHETHER THE CHARACTERISTICS   @L2A 07450600
.*                         OF THE MESSAGE ISSUED MAY BE CHANGED    @L2A 07491200
.*                         BY THE PRIMARY SUBSYSTEM.               @L2A 07531800
.*                         THE VALID VALUES ARE:                   @L2A 07572400
.*                                  YES - THIS IS THE DEFAULT      @L2A 07613000
.*                                  NO                             @L2A 07653600
.*                                                                      07694200
.*                PRTY=    SPECIFIES THE 2-BYTE PRIORITY TO BE     @L2A 07734800
.*                         ASSIGNED TO THIS MESSAGE. IF A          @L2A 07775400
.*                         REGISTER IS USED, THE 2 RIGHTMOST       @L2A 07816000
.*                         BYTES OF THE REGISTER CONTAIN THE       @L2A 07856600
.*                         2-BYTE VALUE.                           @L2A 07897200
.*                                                                      07937800
.*                KEY=     SPECIFIES AN 8-BYTE KEY TO BE           @L2A 07978400
.*                         ASSOCIATED WITH THIS MESSAGE.  IF A     @L2A 08019000
.*                         REGISTER IS USED, THE REGISTER          @L2A 08059600
.*                         SPECIFIES THE ADDRESS OF THE 8-BYTE     @L2A 08100200
.*                         KEY.                                    @L2A 08140800
.*                                                                      08181400
.*                TOKEN=   SPECIFIES A 4-BYTE TOKEN TO BE          @L2A 08222000
.*                         ASSOCIATED WITH THIS MESSAGE.  THE      @L2A 08262600
.*                         FIELD IS USED TO IDENTIFY A GROUP       @L2A 08303200
.*                         OF MESSAGES THAT CAN BE DELETED BY      @L2A 08343800
.*                         TOKEN.  THE TOKEN SHOULD BE UNIQUE      @L2A 08384400
.*                         WITHIN AN ADDRESS SPACE. IF A REGISTER  @L2A 08425000
.*                         IS USED, THE REGISTER CONTAINS THE      @L2A 08465600
.*                         4-BYTE VALUE.                           @L2A 08506200
.*                                                                      08546800
.*                SYSNAME= SPECIFIES AN 8-BYTE SYSTEM NAME TO BE   @L2A 08587400
.*                         ASSIGNED TO THIS MESSAGE.  IT IS THE    @L2A 08628000
.*                         SYSTEM NAME OF WHERE THIS WTO           @L2A 08668600
.*                         ORIGINATED.  IF A REGISTER IS           @L2A 08709200
.*                         USED, THE REGISTER CONTAINS THE         @L2A 08749800
.*                         ADDRESS OF THE 8-BYTE NAME. THIS        @L2A 08790400
.*                         KEYWORD IS MUTUALLY EXCLUSIVE WITH      @L2A 08831000
.*                         THE CONNECT KEYWORD.                    @L2A 08871600
.*                                                                      08912200
.*                CART=    SPECIFIES THE 4-BYTE ADDRESS OF AN      @L4A 08952800
.*                         EIGHT BYTE COMMAND AND RESPONSE TOKEN   @L4A 08993400
.*                         TO BE ASSOCIATED WITH THIS MESSAGE. THE @L4A 09034000
.*                         CART IS USED TO ASSOCIATE A WTO         @L4A 09074600
.*                         RESPONSE WITH THE ORIGINATING COMMAND.  @L4A 09115200
.*                         IF A REGISTER IS USED, THE REGISTER     @L4A 09155800
.*                         CONTAINS THE 4-BYTE ADDRESS VALUE.      @L4A 09196400
.*                         IF AN 8-BYTE FIELD IS USED, THE ADDRESS @L4A 09237000
.*                         OF THE FIELD IS STORED IN THE WPL.      @L4A 09277600
.*                                                                      09318200
.*                TEXT=    SPECIFIES A DATA AREA                   @PEA 09358800
.*                         CONTAINING A 2 BYTE MESSAGE LENGTH      @L5A 09399400
.*                         FIELD FOLLOWED BY THE ACTUAL MESSAGE    @L5A 09440000
.*                         TEXT. IF A REGISTER IS USED, THE        @L5A 09480600
.*                         REGISTER CONTAINS THE ADDRESS OF THE    @L5A 09521200
.*                         DATA AREA. IF A FIELD IS USED, THE      @L5A 09561800
.*                         ADDRESS OF THE FIELD IS STORED IN       @L5A 09602400
.*                         THE WPL. THE TEXT KEYWORD IS            @L5A 09643000
.*                         MUTUALLY EXCLUSIVE WITH INLINE          @L5A 09683600
.*                         MESSAGE TEXT. EITHER TEXT OR INLINE     @L5A 09724200
.*                         TEXT (BUT NOT BOTH) IS REQUIRED ON      @L5A 09764800
.*                         THE STANDARD OR LIST FORM OF WTO.       @L5A 09805400
.*                                                                 @L5A 09846000
.*                WQEBLK=  SPECIFIES A WQE CONTROL BLOCK TO BE     @L2A 09886600
.*                         USED AS INPUT FOR THE WTO.  IF A        @L2A 09927200
.*                         REGISTER IS USED, THE REGISTER          @L2A 09967800
.*                         SPECIFIES THE ADDRESS OF THE WQE        @L2A 10008400
.*                         CONTROL BLOCK TO BE USED AS INPUT TO    @L2A 10049000
.*                         THE WTO.  THIS KEYWORD IS MUTUALLY      @L2A 10089600
.*                         EXCLUSIVE WITH ALL OTHER KEYWORDS.      @L2A 10130200
.*                         THIS KEYWORD IS ONLY VALID ON THE       @L2A 10170800
.*                         STANDARD FORM (MF=I) OF THE MACRO.      @L2A 10211400
.*                         STANDARD FORM OF THE MACRO.             @L2A 10252000
.*                                                                      10292600
.*               LINKAGE=  SPECIFIES HOW CONTROL IS TO PASS TO THE @L6A 10333200
.*                         WTO FUNCTION.                           @L6A 10373800
.*                         THE VALID VALUES ARE-                   @L6A 10414400
.*                              BRANCH                             @L6A 10455000
.*                              SVC - THIS IS THE DEFAULT          @L6A 10495600
.*                                                                      10536200
.*                 SYNCH=  SPECIFIES WHETHER THE WTO REQUEST IS TO @L6A 10576800
.*                         BE PROCESSED SYNCHRONOUSLY WITH RESPECT @L6A 10617400
.*                         TO THE CALLER.  "SYNCH=YES" IS MUTUALLY @L6A 10658000
.*                         EXCLUSIVE WITH THE CONNECT, AREAID,     @L6A 10698600
.*                         KEYWORDS AND WITH "MCSFLAG=HRDCPY"      @L6A 10739200
.*                         THE VALID VALUES ARE-                   @L6A 10779800
.*                              YES                                @L6A 10820400
.*                              NO  - THIS IS THE DEFAULT          @L6A 10861000
.*                                                                      10901600
.*                WSPARM=  SPECIFIES WHETHER A WAIT STATE IS       @L6A 10942200
.*                         ASSOCIATED WITH THE MESSAGE. IF NO      @L6A 10982800
.*                         WAIT STATE IS ASSOCIATED WITH THE       @L6A 11023400
.*                         MESSAGE THE VALUE WILL BE 0 (THE        @L6A 11064000
.*                         DEFAULT).  IF A NON-ZERO VALUE IS       @L6A 11104600
.*                         SPECIFIED THEN IT IS EITHER THE         @L6A 11145200
.*                         ADDRESS OF THE WAIT STATE PARAMETER     @L6A 11185800
.*                         LIST OR A REGISTER CONTAINING A         @L6A 11226400
.*                         POINTER TO THE PARAMETER LIST.          @L6A 11267000
.*                         WSPARM REQUIRES SYNCH=YES.              @L6A 11307600
.*                                                                      11350000
.*                                                                      11400000
.* FUNCTION =                                                      @L2C 11402600
.*      BUILDS A WRITE TO OPERATOR PARAMETER LIST              @G64DPSS 11405200
.*      (WPL) AND/OR THE CODE WHICH WILL INVOKE SVC 35         @G64DPSS 11407800
.*      OR A BRANCH ENTRY WTO TO ISSUE THE MESSAGE.                @L6C 11410400
.*                                                             @G64DPSS 11413000
.* OPERATION =                                                     @L2A 11415600
.*      - PERFORM APPROPRIATE PARAMETER LIST GENERATION IF         @L2A 11418200
.*           WQEBLK KEYWORD IS SPECIFIED                           @L2A 11420800
.*      - IF EXECUTE FORM SPECIFIED, INSERT RUN-TIME KEYWORD       @L2A 11423400
.*           VALUES INTO THE ALREADY-EXISTING PARAMETER LIST       @L2A 11426000
.*      - IF NO NEW OR CHANGED KEYWORDS SPECIFIED, GENERATE        @L2A 11428600
.*           STANDARD FORM OF THE WPL                              @L2A 11431200
.*      - GENERATE AN EXTENDED FORMAT WPL (WPX) WHEN ANY           @L2A 11433800
.*           NEW OR CHANGED KEYWORDS ARE SPECIFIED.                @L2A 11436400
.*      - IF THIS IS A MULTI-LINE WTO, GENERATE THE MULTI-LINE     @L2A 11439000
.*           SECTION OF THE WPL                                    @L2A 11441600
.*      - IF LINKAGE=BRANCH WAS SPECIFIED GENERATE CODE FOR BRANCH @L6A 11444200
.*           ENTRY TO IEAVBWTO.  OTHERWISE ISSUE THE SVC.          @L6A 11446800
.*                                                                      11450000
.* USAGE =                                                         @L2A 11500000
.*      ANY PROGRAM MAY USE THIS MACRO TO BUILD THE WTO            @L2A 11550000
.*      PARAMETER LIST.  HOWEVER, WQEBLK, JOBID, SYSNAME,          @L2A 11600000
.*      JOBNAME, SUBSMOD, PRTY, LINKAGE, SYNCH, AND                @01C 11650000
.*      WSPARM ARE FOR CONTROL PROGRAM USE ONLY.                   @L6C 11700000
.*                                                                      13400000
.* RESTRICTIONS =                                                  @PFA 13414400
.*                                                                 @PFA 13428800
.*    "LINKAGE" SPECIFIED AS OR DEFAULTED TO "SVC" REQUIRES        @PFA 13443200
.*      THE CALLER TO:                                             @PFA 13457600
.*      - BE IN TASK MODE                                          @PFA 13472000
.*      - HOLD NO LOCKS                                            @PFA 13486400
.*      - BE ENABLED FOR INTERRUPTS                                @PFA 13500800
.*      - BE IN PRIMARY ASC MODE                                   @PFA 13515200
.*      - BE IN NON-CROSS-MEMORY MODE                              @PFA 13529600
.*      - "AUTHORIZED" PARAMETERS REQUIRE SUPERVISOR STATE,        @PFA 13544000
.*         PROTECT KEY 0-7.                                        @PFA 13558400
.*                                                                 @PFA 13572800
.*    "LINKAGE=BRANCH" CAN BE USED-                                @PFA 13587200
.*      WHEN IN SRB MODE-                                          @PFA 13601600
.*        A WTO ISSUED FROM SRB MODE WILL NOT HAVE A JOBNAME OR    @PFA 13616000
.*        JOBID ASSOCIATED WITH IT.                                @PFA 13630400
.*        IT WILL NOT BE AUTOMATICALLY DOM'D WHEN THE TASK ENDS.   @PFA 13644800
.*      WHEN DISABLED FOR INTERRUPTS-                              @PFA 13659200
.*        WTO PARAMETER LIST AND ALL STORAGE ADDRESSED BY IT       @PFA 13673600
.*        MUST BE IN FIXED OR DREF STORAGE.                        @PFA 13688000
.*      WHEN LOCKS HELD                                            @PFA 13702400
.*      WHEN THE PRIMARY ADDRESS SPACE IS NOT THE SAME AS          @PFA 13716800
.*      THE HOME ADDRESS SPACE-                                    @PFA 13731200
.*        CALLER MUST BE IN PRIMARY ASC MODE.                      @PFA 13745600
.*                                                                 @PFA 13760000
.*    IF "LINKAGE=BRANCH" IS SPECIFIED-                            @PFA 13774400
.*        WQEBLK KEYWORD CANNOT BE SPECIFIED, ABEND IF ATTEMPTED   @PFA 13788800
.*        MESSAGE TEXT MAY NOT CONTAIN DBCS DATA.                  @PFA 13803200
.*        CALLER MUST BE IN SUPERVISOR STATE, PROTECT KEY 0-7.     @PFA 13817600
.*        CALLER MUST BE IN PRIMARY ASC MODE.                      @PFA 13832000
.*                                                                 @PFA 13846400
.*    IF "WSPARM" IS SPECIFIED AS NONZERO-                         @PFA 13860800
.*        "LINKAGE=BRANCH" RESTRICTIONS APPLY, PLUS                @PFA 13875200
.*         ALL INPUT STORAGE MUST BE FIXED. (WTO PARAMETER         @PFA 13889600
.*         LIST AND ANY STORAGE ADDRESSESED BY IT, SUCH AS         @PFA 13904000
.*         TEXT DATA OR CART, PLUS THE LOADWAIT PARAMETER          @PFA 13918400
.*         LIST POINTED TO BY WSPARM).                             @PFA 13932800
.*                                                                      13950000
.* DEPENDENCIES =                                                  @L2A 13984000
.*      - LIST AND EXECUTE FORM MUST REFERENCE THE SAME VERSION    @L2A 14018000
.*           OF THE PARAMETER LIST (WPL)                           @L2A 14052000
.*      - THE LENGTH OF THE WPX IS MAINTAINED IN A ONE BYTE FIELD  @L5A 14086000
.*        WITHIN THE WPX. WHENEVER THE LENGTH OF THE WPX CHANGES   @L5A 14120000
.*        THIS FIELD MUST BE UPDATED.                              @L5A 14154000
.*                                                                      14188000
.* MODULE TYPE = MACRO                                             @L2A 14222000
.*                                                                      14256000
.* ENTRY POINT = N/A                                               @L2A 14290000
.*                                                                      14324000
.* INPUT = SEE INVOCATION                                          @L2A 14358000
.*                                                                      14392000
.* OUTPUT =                                                        @L2A 14426000
.*      PARAMETER LIST TO ISSUE SVC 35 OR BALR AND/OR THE          @L6C 14460000
.*      INSTRUCTIONS REQUIRED TO MODIFY THE PARAMETER              @L2A 14494000
.*      LIST AND ISSUE SVC 35 OR BALR TO IEAVBWGL.                 @L6A 14528000
.*                                                                      14562000
.* EXIT, NORMAL                                                    @L2A 14596000
.*   CONDITION - NO ERRORS DETECTED BY THE WTO MACRO               @L2A 14630000
.*   OUTPUT    - NO MNOTE ISSUED. SEVERITY CODE = 0                @L2A 14664000
.*                                                                      14698000
.* EXIT, NORMAL                                                    @L2A 14732000
.*   CONDITION - INFORMATIONAL MNOTE CONDITION DETECTED BY THE     @L2A 14766000
.*                 WTO MACRO                                       @L2A 14800000
.*   OUTPUT    - MNOTE WITH SEVERITY CODE 0 ISSUED WHEN:           @L6C 14834000
.*                .DATA IS SPECIFIED FOR A RUN-TIME KEYWORD ON A   @L6C 14868000
.*                 LIST FORM INVOCATION. THE DATA IS IGNORED.      @L2A 14902000
.*                .LINE TYPE DATA IS SPECIFIED WITH THE TEXT       @PKA 14936000
.*                 KEYWORD ON AN EXECUTE FORM INVOCATION.          @PKA 14970000
.*                 THE LINE TYPE DATA IS IGNORED.                  @PKA 15004000
.*                .A LINE OF INLINE TEXT IS LONGER THAN THE        @PMM 15038000
.*                   DOCUMENTED ALLOWED MAXIMUM LENGTH.            @PMM 15072000
.*                                                                      15106000
.* EXIT, NORMAL                                                    @L2A 15140000
.*   CONDITION - WARNING CONDITION DETECTED BY THE WTO MACRO       @L2A 15174000
.*   OUTPUT    - MNOTE WITH SEVERITY CODE 4 ISSUED WHEN:           @L2A 15208000
.*                .A RUN-TIME KEYWORD IS SPECIFIED WITHOUT DATA    @L2A 15242000
.*                   DURING A STANDARD OR EXECUTE FORM INVOCATION. @L2A 15276000
.*                   THE KEYWORD IS IGNORED.                       @L2A 15310000
.*                .AN INVALID ROUTING CODE IS SPECIFIED            @L2A 15344000
.*                .AN INVALID RANGE OF ROUTING CODES IS SPECIFIED  @L2A 15378000
.*                .RESERVED ROUTING CODES (29-40) ARE          @YA10057 15412000
.*                   SPECIFIED                                 @YA10057 15446000
.*                .AN INVALID SUBSMOD KEYWORD VALUE IS SPECIFIED   @L2A 15480000
.*                .THE BUSYEXIT PARAMETER IS USED ON A WTOR        @L2A 15514000
.*                .AN INVALID DESCRIPTOR CODE IS SPECIFIED         @L2A 15548000
.*                .INVALID OR MUTUALLY EXCLUSIVE MCSFLAG           @L2A 15582000
.*                   VALUES ARE SPECIFIED                          @L2A 15616000
.*                .AN INVALID MSGTYPE VALUE IS SPECIFIED           @L2A 15650000
.*                .AN INVALID QID VALUE IS SPECIFIED               @L2A 15684000
.*                .MORE THAN ONE ARGUMENT CODED WITH EITHER THE    @L6A 15718000
.*                   LINKAGE, SYNCH, OR WSPARM KEYWORDS.           @L6A 15752000
.*                                                                      15786000
.* EXIT, ERROR                                                     @L2A 15820000
.*   CONDITION - TERMINATING ERROR CONDITION DETECTED BY           @L2A 15854000
.*                 THE WTO MACRO                                   @L2A 15888000
.*   OUTPUT    - MNOTE WITH SEVERITY CODE 12 ISSUED WHEN:          @L2A 15922000
.*                .THE WQEBLK KEYWORD IS SPECIFIED ALONG WITH      @L2A 15956000
.*                   OTHER KEYWORDS                                @L2A 15990000
.*                .THE CONNECT KEYWORD IS SPECIFIED ALONG WITH     @L2A 16024000
.*                   EITHER THE SYSNAME, CONSID OR                 @01C 16058000
.*                   CONSNAME.                                     @L3A 16092000
.*                .THE CONSID KEYWORD IS SPECIFIED ALONG WITH      @L3A 16126000
.*                   THE CONSNAME KEYWORD.                         @L3A 16160000
.*                .THE CONNECT KEYWORD IS SPECIFIED ON A           @L2A 16194000
.*                   SINGLE-LINE WTO                               @L2A 16228000
.*                .THE NUMBER OF TEXT LINES REQUESTED IS EITHER    @L2A 16262000
.*                   ZERO OR GREATER THAN 255                      @L2A 16296000
.*                .THE TEXT KEYWORD IS SPECIFIED ALONG WITH        @L5A 16330000
.*                   INLINE MESSAGE TEXT.                          @L5A 16364000
.*                .SYNCH=YES WITH MORE THAN 14 LINES OF TEXT.      @L6A 16398000
.*                .SYNCH=YES SPECIFIED ALONG WITH CONNECT OR       @L6A 16432000
.*                   AREAID KEYWORDS.                              @L6A 16466000
.*                .SYNCH=YES SPECIFIED WITH MCSFLAG=HRDCPY         @L6A 16500000
.*                .SYNCH=YES SPECIFIED WITHOUT LINKAGE=BRANCH      @L6A 16534000
.*                     ON STANDARD OR EXECUTE FORM.                @P9A 16568000
.*                .WSPARM ¬= 0 SPECIFIED WITHOUT SYNCH=YES         @P9C 16602000
.*                     OR  WITHOUT LINKAGE=BRANCH ON STANDARD      @P9C 16636000
.*                     OR EXECUTE FORM.                            @P9A 16670000
.*                                                                      16704000
.* EXTERNAL REFERENCES = N/A                                       @L2A 16738000
.*                                                                      16772000
.* TABLES = N/A                                                    @L2A 16806000
.*                                                                      16840000
.* MACROS =                                                        @L2A 16874000
.*      THE PARAMETER LIST GENERATED BY THIS MACRO IS MAPPED       @L2A 16908000
.*      BY THE MACRO IEZWPL. HOWEVER, IEZWPL IS NOT REQUIRED       @L2A 16942000
.*      TO USE THIS MACRO.                                         @L2A 16976000
.*                                                                      17010000
.* CHANGE ACTIVITY =                                           @G64DPSS 17044000
.*              G64DPSS,OZ43167,G860PSS,ZMC0828                @ZMC0828 17078000
.* $D1=DCR7,     JBB2110, 820831, PDSJ: MULTILINE WTP SUPPORT           17112000
.* $L1=MRRHCLOG, JBB2125, 830608, PDF8: HARDCOPY LOG FORMAT             17146000
.* $L2=COEXWTO1, JBB2220, 841101, PDF9: JES3/MCS COEXISTENCE            17180000
.* $P1=PA20104,  JBB2220, 850220, PDF9: JES3/MCS COEXISTENCE            17214000
.* $P2=PA20116,  JBB2220, 850220, PDF9: JES3/MCS COEXISTENCE            17248000
.* $P3=PA21155,  JBB2220, 860910, PDF9: JES3/MCS COEXISTENCE            17282000
.* $P4=PA21240,  JBB2220, 861008, PDF9: JES3/MCS COEXISTENCE            17316000
.*                      YA10057                                         17350000
.*              YA11509 - NO CODE CHANGES.                              17384000