         MACRO                                                          00050000
&NAME    XECBTAB &TYPE=,&XECB=,&XECBADR=,&ACCESS=,&MFG=        @D35XDGS 00100000
         LCLA  &BAL,&DISP,&TXA,&TMF,&D,&OFFS1                  @D35XDGS 00150000
         LCLA  &XR                                             @D36ZDOW 00200000
         LCLB  &DEF,&ERR,&DELAL                                @D35XDGS 00250000
         LCLC  &F,&R1,&AREA,&IXA,&TARGET                       @D35XDGS 00300000
         LCLC  &HEXB,&HEX1                                              00350000
         LCLC  &XREG                                           @D36ZDOW 00400000
.*                                                                      00450000
         AGO   .INCLBPP                                                 00500000
*************************************************************           00550000
*        THIS MACRO IS "RESTRICTED MATERIALS OF IBM"        *           00600000
*        5686-007 (C) COPYRIGHT IBM CORP. 1979, 1988        *           00650000
*        ALL RIGHTS RESERVED                                *           00700000
*        LICENSED MATERIALS-PROPERTY OF IBM                 *           00750000
.*       SEE COPYRIGHT INSTRUCTIONS, G120-2083              *           00800000
.************************************************************           00850000
.INCLBPP ANOP                                                           00900000
         SPACE 1                                                        00950000
.*                                                                      01000000
.* /* START OF SPECIFICATIONS ***************************************** 01050000
.*                                                                      01100000
.*01* MODULE-TYPE = SUPERVISOR GENERATION AND USER INTERFACE MACRO      01150000
.*                                                                      01200000
.*01* DECRIPTIVE NAME = XECB TABLE ENTRY DEFINITION MACRO               01250000
.*                                                                      01300000
.**** END OF SPECIFICATIONS ******************************************* 01350000
.*                                                                      01400000
&R1      SETC  '1'          DEFINE WORK REGISTER               @D35XDGS 01450000
&IXA     SETC  '&XECB'                                         @D35XDGS 01500000
&BAL     SETA  14                                                       01550000
         AIF   (T'&TYPE EQ 'O').ER1                                     01600000
         AIF   ('&TYPE' EQ 'DELETALL').DELALL                  @D34XDJO 01650000
.CNNXT   AIF   (T'&XECB EQ 'O').ER2                                     01700000
         AIF   (&ERR).EREX                                              01750000
         AIF   ('&XECB'(1,1) NE '(').NRXECB                    @D36ZDOW 01800000
         AIF   (T'&XECBADR EQ 'O' AND '&TYPE' EQ 'DEFINE').ER5 @D36ZDOW 01850000
&XREG    SETC  '0'.'&XECB'                                     @D36ZDOW 01900000
&XR      SETA  1                                               @D36ZDOW 01950000
         AGO   .FOK                                            @D36ZDOW 02000000
.NRXECB  ANOP                                                  @D36ZDOW 02050000
&F       SETC  '&XECB'(1,1)                                             02100000
         AIF   (T'&XECB EQ 'N').ER3                                     02150000
         AIF   ('&F' LT 'A' OR '&F' GT 'Z').ER4                         02200000
.FOK     ANOP                                                           02250000
         AIF   ('&TYPE' EQ 'DEFINE').DE                                 02300000
         AIF   (T'&XECBADR EQ 'O').TY1                         @DA62117 02350000
         MNOTE 2,'XECBADR OPERAND IGNORED BECAUSE TYPE NOT ''DEFINE''.' 02400000
.TY1     AIF   ('&TYPE' EQ 'DELETE').DEL                       @D35XDGS 02450000
         AIF   ('&TYPE' EQ 'CHECK').CHK                                 02500000
         AIF   ('&TYPE' EQ 'RESET').RST                        @D33PADO 02550000
         MNOTE 3,'** TYPE OPERAND INVALID **'                           02600000
         AGO   .EREX                                           @DM14633 02650000
.DE      ANOP                                                           02700000
&DEF     SETB  1                                                        02750000
&BAL     SETA  16                                                       02800000
         AIF   (T'&ACCESS NE 'O').P1                           @DM12773 02850000
         MNOTE 2,'** ACCESS OPERAND OMITTED - XPOST ASSUMED **'         02900000
         AGO   .XP                                                      02950000
.P1      AIF   ('&ACCESS' EQ 'XPOST').XP                                03000000
         AIF   ('&ACCESS' EQ 'XWAIT').P2                                03050000
         MNOTE 2,'** ACCESS OPERAND INVALID - XPOST ASSUMED **'         03100000
.XP      ANOP                                                           03150000
&HEX1    SETC  '1001'                                                   03200000
         AGO   .GENER1                                                  03250000
.P2      ANOP                                                           03300000
&HEX1    SETC  '0110'                                                   03350000
         AGO   .GENER1                                                  03400000
.RST     ANOP                                                  @D33PADO 03450000
         AIF   (T'&ACCESS EQ 'O').RESBCK                       @D33PADO 03500000
         MNOTE 3,'** ACCESS OPERAND IGNORED WITH RESET **'     @D33PADO 03550000
.RESBCK  ANOP                                                  @D33PADO 03600000
&HEXB    SETC  '1000'                                          @D33PADO 03650000
         AGO   .GENER1                                         @D33PADO 03700000
.DEL     ANOP                                                           03750000
         AIF   (T'&ACCESS EQ 'O').DELBCK                                03800000
         MNOTE 2,'** ACCESS OPERAND IGNORED WITH DELETE **'             03850000
.DELBCK  ANOP                                                           03900000
&HEXB    SETC  '4000'                                                   03950000
         AGO   .GENER1                                                  04000000
.DELALL  ANOP                                                  @D34XDJO 04050000
         AIF   (T'&ACCESS EQ 'O' AND T'&XECB EQ 'O' AND T'&XECBADR EQ  *04100000
               'O').DELAL                                      @DA62117 04150000
         MNOTE 2,'** ALL OPERANDS EXCEPT TYPE AND MFG IGNORED. **'      04200000
.DELAL   ANOP                                                  @D34XDJO 04250000
&DELAL   SETB  1                                               @D34XDJO 04300000
&HEXB    SETC  '4800'                                          @D34XDJO 04350000
         AGO   .GENER1                                         @D34XDJO 04400000
.CHK     ANOP                                                           04450000
         AIF   (T'&ACCESS EQ 'O').CHKBCK                                04500000
         MNOTE 2,'** ACCESS OPERAND IGNORED WITH CHECK **'              04550000
.CHKBCK  ANOP                                                           04600000
&HEXB    SETC  '8000'                                                   04650000
.GENER1  ANOP                                                           04700000
         AIF   (&ERR).EREX                                     @DM14633 04750000
&NAME    DS    0H                 START OF MACRO GENERATION    @DM12797 04800000
         AIF   (&DEF AND T'&XECBADR NE 'O').EXTENT             @D35XDGS 04850000
         AIF   (NOT &DEF AND T'&MFG NE 'O').MFAV               @DA62117 04900000
.BAL1    ANOP                                                  @D36ZDOW 04950000
         AIF   (&DELAL).BAL                                    @D36ZDOW 05000000
         AIF   (&XR NE 1).BAL                                  @D36ZDOW 05050000
         MVC   *+10(8),&XREG                                   @D36ZDOW 05100000
.BAL     ANOP                                                           05150000
         BAL   1,*+&BAL           BRANCH AROUND CONSTANT                05200000
         AIF   (&DELAL).GENZERO                                @D34XDJO 05250000
.*                                                             @D35XDGS 05300000
.*       ADDRESS CONSTANT GENERATION ------------------------- @D35XDGS 05350000
.*                                                             @D35XDGS 05400000
.ACONST  ANOP                                                           05450000
         AIF   (&XR NE 1).NORNOT                               @D36ZDOW 05500000
         DC    XL8'00'            XECB NAME IN REG NOTATION    @D36ZDOW 05550000
         AGO   .RNOT                                           @D36ZDOW 05600000
.NORNOT  ANOP                                                  @D36ZDOW 05650000
         DC    CL8'&XECB.'        XECB NAME                             05700000
.RNOT    ANOP                                                  @D36ZDOW 05750000
         AIF   (NOT &DEF).XL2                                           05800000
         DC    B'0000&HEX1'       INDICATOR BYTE                        05850000
         DC    AL3(&IXA)          XECB ADDRESS                 @D35XDGS 05900000
         AGO   .SVC                                                     05950000
.GENZERO ANOP                                                  @D34XDJO 06000000
         DC    XL8'00'            NO NAME SPECIFIED            @D34XDJO 06050000
.XL2     DC    XL2'&HEXB.'        INDICATOR BYTES                       06100000
.*                                                                      06150000
.*       SVC GENERATION --------------------------------------          06200000
.*                                                                      06250000
.SVC     SVC   92                                                       06300000
         MEXIT                                                          06350000
.ER1     MNOTE 3,'** TYPE OPERAND IS REQUIRED **'                       06400000
&ERR     SETB  1                                                        06450000
         AGO   .CNNXT                                                   06500000
.ER2     MNOTE 3,'** XECB OPERAND IS REQUIRED **'                       06550000
         AGO   .EREX                                                    06600000
.ER4     AIF ('&F' EQ '$' OR '&F' EQ '@' OR '&F' EQ '#').FOK            06650000
.ER3     MNOTE 3,'** XECB OPERAND INVALID **'                           06700000
&ERR     SETB  1                                               @DM14633 06750000
         AGO   .FOK                                            @DM14633 06800000
.ER5     ANOP                                                  @D36ZDOW 06850000
         MNOTE 3,'** TYPE EQUAL ''DEFINE'' AND REGISTER NOTATION OF XEC*06900000
               B OPERAND REQUIRES XECBADR ***'                 @D36ZDOW 06950000
.EREX    ANOP                                                           07000000
         MNOTE 8,'** MACRO GENERATION TERMINATED **'                    07050000
         MEXIT                                                          07100000
.EXTENT  ANOP                                                  @D35XDGS 07150000
.*                                                             @D35XDGS 07200000
.*       EVALUATE XECBADR OPERAND ---------------------------- @D35XDGS 07250000
.*                                                             @D35XDGS 07300000
.XAAV    AIF   ('&XECBADR'(1,1) EQ '(').XADYN                  @D35XDGS 07350000
&IXA     SETC  '&XECBADR'                                      @D35XDGS 07400000
&TXA     SETA  1              1= A-TYPE                        @D35XDGS 07450000
         AIF   (T'&MFG EQ 'O').BAL1                            @D35XDGS 07500000
         MNOTE 2,'** CONSTANT PARAMETER LIST,MFG OPERAND IGNORED **'    07550000
         AGO  .BAL1                                            @D35XDGS 07600000
.XADYN   AIF   ('&XECBADR'(1,3) EQ '(S,').XASTYP               @D35XDGS 07650000
&IXA     SETC  '&XECBADR'(2,K'&XECBADR-2)                      @D35XDGS 07700000
&TXA     SETA  2              2= REGISTER                      @D35XDGS 07750000
&OFFS1   SETA  &OFFS1+4       INCREMENT INSTRUCTION OFFSET     @D35XDGS 07800000
.*                            ( STCM ASSUMED )                 @D35XDGS 07850000
         AGO   .XA1                                            @D35XDGS 07900000
.XASTYP  ANOP                                                  @D35XDGS 07950000
&IXA     SETC  '&XECBADR'(4,K'&XECBADR-4)                      @D35XDGS 08000000
&TXA     SETA  4              4= S-TYPE                        @D35XDGS 08050000
&OFFS1   SETA  &OFFS1+8       INCREMENT INSTRUCTION OFFSET     @D35XDGS 08100000
.*                            ( LA , STCM  ASSUMED )           @D35XDGS 08150000
.XA1     ANOP                                                  @D35XDGS 08200000
.*                                                             @D35XDGS 08250000
.*       MFG OPERAND EVALUATION ------------------------------ @D35XDGS 08300000
.*                                                             @D35XDGS 08350000
         AIF   (T'&MFG NE 'O').MFAV                            @D35XDGS 08400000
&AREA    SETC  '*'                                             @D35XDGS 08450000
&D       SETA  4                                               @D35XDGS 08500000
&OFFS1   SETA  &OFFS1+4                                        @D35XDGS 08550000
         AGO   .MF1                                            @D35XDGS 08600000
.MFAV    ANOP                                                  @D35XDGS 08650000
&D       SETA  0                                               @D35XDGS 08700000
&OFFS1   SETA  &OFFS1+14                                       @D35XDGS 08750000
         AIF   ('&MFG'(1,1) EQ '(').MFDYN                      @D35XDGS 08800000
&AREA    SETC  '&MFG'                                          @D35XDGS 08850000
&TMF     SETA  1              1= A-TYPE                        @D35XDGS 08900000
         AGO   .MF1                                            @D35XDGS 08950000
.MFDYN   AIF   ('&MFG'(1,3) EQ '(S,').MFSTYP                   @D35XDGS 09000000
&AREA    SETC  '0'.'&MFG'                                      @D35XDGS 09050000
&TMF     SETA  2              2= REGISTER                      @D35XDGS 09100000
         AGO   .MF1                                            @D35XDGS 09150000
.MFSTYP  ANOP                                                  @D35XDGS 09200000
&AREA    SETC  '&MFG'(4,K'&MFG-4)                              @D35XDGS 09250000
&TMF     SETA  4              4= S-TYPE                        @D35XDGS 09300000
.MF1     ANOP                                                  @D35XDGS 09350000
.*                                                             @D35XDGS 09400000
.*        INSTRUCTION GENERATION ----------------------------- @D35XDGS 09450000
.*                                                             @D35XDGS 09500000
&DISP    SETA  &BAL-4         SET PARM LENGTH FOR MVC          @D35XDGS 09550000
.OPT01   AIF   (&OFFS1/4*4 EQ &OFFS1).FULLW                    @D35XDGS 09600000
.HALFW   CNOP  2,4                ALIGN TO HALFWORD BDRY       @D35XDGS 09650000
         AGO   .OPT0                                           @D35XDGS 09700000
.FULLW   CNOP  0,4                ALIGN TO FULLWORD BDRY       @D35XDGS 09750000
.OPT0    ANOP                                                  @D35XDGS 09800000
         AIF   (&XR NE 1).XECBRN1                              @D36ZDOW 09850000
&OFFS1   SETA  &OFFS1+6                                        @D36ZDOW 09900000
.XECBRN1 ANOP                                                  @D36ZDOW 09950000
         AIF   (&TMF EQ 0).XA10                                @D35XDGS 10000000
&TARGET  SETC  '&AREA'.'('.'&DISP'.')'                         @D35XDGS 10050000
         AIF   (&TMF NE 2).OPT1                                @D35XDGS 10100000
&TARGET  SETC  '0'.'('.'&DISP'.','.'&MFG(1)'.')'               @D35XDGS 10150000
.OPT1    ANOP                                                  @D35XDGS 10200000
         MVC   &TARGET,*+&OFFS1   MOVE PARAMETER LIST          @D35XDGS 10250000
&OFFS1   SETA  0                                               @D35XDGS 10300000
         AIF   (&XR NE 1).XECBRN3                              @D36ZDOW 10350000
&TARGET  SETC  '&AREA'.'(8)'                                   @D36ZDOW 10400000
         AIF   (&TMF NE 2).XECBRN2                             @D36ZDOW 10450000
&TARGET  SETC  '0'.'(8,'.'&MFG(1)'.')'                         @D36ZDOW 10500000
.XECBRN2 ANOP                                                  @D36ZDOW 10550000
         MVC   &TARGET,&XREG                                   @D36ZDOW 10600000
.XECBRN3 ANOP                                                  @D36ZDOW 10650000
.XA10    ANOP                                                  @D35XDGS 10700000
         AIF   (&TXA NE 2).XA20         XECB OPERAND --------- @D35XDGS 10750000
         STCM  &IXA,B'0111',&OFFS1+9+&AREA  SET XECB ADDRESS   @D35XDGS 10800000
         AIF   (&TMF NE 0).XECBRN4                             @D36ZDOW 10850000
         AIF   (&XR NE 1).XECBRN4                              @D36ZDOW 10900000
&OFFS1   SETA  &OFFS1-4                                        @D36ZDOW 10950000
         MVC   &AREA+&OFFS1.(8),&XREG                          @D36ZDOW 11000000
.XECBRN4 ANOP                                                  @D36ZDOW 11050000
         AIF   (&TMF NE 0).XA20                                @D35XDGS 11100000
&OFFS1   SETA  &OFFS1-4                                        @D35XDGS 11150000
.XA20    AIF   (&TXA NE 4).XA30                                @D35XDGS 11200000
         LA    &R1,&IXA           SET XECB                     @D35XDGS 11250000
         STCM  &R1,B'0111',&OFFS1+9-&D+&AREA  ADDRESS          @D35XDGS 11300000
         AIF   (&TMF NE 0).XECBRN5                             @D36ZDOW 11350000
         AIF   (&XR NE 1).XECBRN5                              @D36ZDOW 11400000
&OFFS1   SETA  &OFFS1-4                                        @D36ZDOW 11450000
         MVC   &AREA-&D+&OFFS1.(8),&XREG                       @D36ZDOW 11500000
.XECBRN5 ANOP                                                  @D36ZDOW 11550000
         AIF   (&TMF NE 0).XA30                                @D35XDGS 11600000
&OFFS1   SETA  &OFFS1-8                                        @D35XDGS 11650000
.XA30    ANOP                                                  @D35XDGS 11700000
         AIF   (&TXA EQ 1).AC1                                 @D35XDGS 11750000
&IXA     SETC  '0'                                             @D35XDGS 11800000
.AC1     AIF   (&TMF EQ 0).BAL                                 @D35XDGS 11850000
         LA    1,&AREA            POINT TO PARM XECB           @D35XDGS 11900000
         B     *+&BAL                                          @D35XDGS 11950000
         AIF   (&DELAL).GENZERO                                @DA62117 12000000
         AGO   .ACONST                                         @D35XDGS 12050000
         MEND                                                  @D35XDGS 12100000
