         MACRO                                                          00050000
&NAME    XPOST &XECB=,&POINTRG=                                         00100000
         LCLB  &ERR,&PAR                                                00150000
         LCLC  &F,&G                                                    00200000
         AGO   .ZZZ                                                     00250000
*********************************************************************** 00300000
*                                                                     * 00350000
*        THIS MACRO IS "RESTRICTED MATERIALS OF IBM"                  * 00400000
*        5686-007 (C) COPYRIGHT IBM CORP. 1977,1988                   * 00450000
*        ALL RIGHTS RESERVED                                          * 00500000
*        LICENSED MATERIALS - PROGRAM PROPERTY OF IBM                 * 00550000
.*       SEE COPYRIGHT INSTRUCTIONS, G120-2083                        * 00600000
*                                                                     * 00650000
*********************************************************************** 00700000
.ZZZ ANOP                                                               00750000
         AIF   (T'&XECB EQ 'O').ER1                                     00800000
         AIF   ('&XECB'(1,4) EQ '(14)').ER4                             00850000
&F       SETC  '&XECB'(1,1)                                             00900000
         AIF   ('&F' NE '(').CKC                                        00950000
&PAR     SETB  1                                                        01000000
         AGO   .FOK                                                     01050000
.CKC     ANOP                                                           01100000
         AIF   ('&F' LT 'A' OR '&F' GT 'Z').ER3                         01150000
.FOK     ANOP                                                           01200000
         AIF   (T'&POINTRG EQ 'O').ER2                                  01250000
&G       SETC  '&POINTRG'(1,1)                                          01300000
         AIF   ('&G' NE '(').ER7                                        01350000
         AIF   ('&POINTRG'(2,2) EQ '1)').ER5                            01400000
.NOPO    ANOP                                                           01450000
         AIF   (&ERR).EREX                                              01500000
         AIF   (NOT &PAR).NOCKR                                @DM14650 01550000
         AIF   ('&XECB(1)' EQ '&POINTRG(1)').ER6               @DM14650 01600000
.NOCKR   ANOP                                                  @DM14650 01650000
&NAME    DS    0H                 START OF MACRO GENERATION    @DM12797 01700000
         AIF   (&PAR).CKR                                               01750000
         BAL   1,*+12             BRANCH AROUND CONSTANT                01800000
         DC    CL8'&XECB.'        XECB NAME                             01850000
         AGO   .STR                                                     01900000
.CKR     ANOP                                                           01950000
         AIF   ('&XECB'(2,2) EQ '1)').STR                               02000000
         LR    1,&XECB(1)         LOAD XECB NAME ADDR                   02050000
.STR     ANOP                                                           02100000
         AIF   ('&POINTRG'(2,2) EQ '14').SVC                            02150000
         LR    14,&POINTRG(1)     LOAD SLOT ADDRESS                     02200000
.SVC     SVC   93                                                       02250000
         MEXIT                                                          02300000
.ER1     MNOTE 3,'** XECB OPERAND IS REQUIRED **'                       02350000
&ERR     SETB  1                                                        02400000
         AGO   .FOK                                                     02450000
.ER2     MNOTE 3,'** POINTRG OPERAND IS REQUIRED **'                    02500000
&ERR     SETB  1                                                        02550000
         AGO   .NOPO                                                    02600000
.ER3     AIF   ('&F' EQ '$' OR '&F' EQ '@' OR '&F' EQ '#').FOK          02650000
         MNOTE 3,'** XECB OPERAND IS INVALID **'                        02700000
&ERR     SETB  1                                                        02750000
         AGO   .FOK                                                     02800000
.ER4     MNOTE 3,'** XECB OPERAND MAY NOT USE REG 14 **'                02850000
&ERR     SETB  1                                                        02900000
         AGO   .FOK                                                     02950000
.ER5     MNOTE 3,'** POINTRG OPERAND MAY NOT USE REG 1 **'              03000000
&ERR     SETB  1                                                        03050000
         AGO   .NOPO                                                    03100000
.ER6     MNOTE 3,'** BOTH PARAM MAY NOT USE THE SAME REG **'            03150000
         AGO   .EREX                                                    03200000
.ER7     MNOTE 3,'** POINTRG OPERAND IS INVALID **'                     03250000
&ERR     SETB  1                                                        03300000
         AGO   .NOPO                                                    03350000
.EREX    ANOP                                                           03400000
         MNOTE 8,'** MACRO GENERATION TERMINATED **'                    03450000
         MEXIT                                                          03500000
         MEND                                                           03550000
