         MACRO                                                          00050000
&NAME    XWAIT &XECB=,&POINTRG=                                         00100000
         LCLB  &ERR,&PAR                                                00150000
         LCLC  &F,&G                                                    00200000
.*                                                                      00250000
         AGO   .ZZZ                                                     00300000
*********************************************************************** 00350000
*                                                                     * 00400000
*        THIS MACRO IS "RESTRICTED MATERIALS OF IBM"                  * 00450000
*        5686-007 (C) COPYRIGHT IBM CORP. 1977,1988                   * 00500000
*        ALL RIGHTS RESERVED                                          * 00550000
*        LICENSED MATERIALS - PROGRAM PROPERTY OF IBM                 * 00600000
.*       SEE COPYRIGHT INSTRUCTIONS, G120-2083                        * 00650000
*                                                                     * 00700000
*********************************************************************** 00750000
.ZZZ ANOP                                                               00800000
         AIF   (T'&XECB EQ 'O').ER1                                     00850000
         AIF   ('&XECB'(1,4) EQ '(14)').ER4                             00900000
&F       SETC  '&XECB'(1,1)                                             00950000
         AIF   ('&F' NE '(').CKC                                        01000000
&PAR     SETB  1                                                        01050000
         AGO   .CNNXT                                                   01100000
.CKC     ANOP                                                           01150000
         AIF   ('&F' LT 'A' OR '&F' GT 'Z').ER3                         01200000
.CNNXT   ANOP                                                           01250000
         AIF   (T'&POINTRG EQ 'O').ER2                                  01300000
&G       SETC  '&POINTRG'(1,1)                                          01350000
         AIF   ('&G' NE '(').ER7                                        01400000
         AIF   ('&POINTRG'(2,2) EQ '1)').ER5                            01450000
.NOPO    ANOP                                                           01500000
         AIF   (&ERR).EREX                                              01550000
         AIF   (NOT &PAR).NOCKR                                @DM14650 01600000
         AIF   ('&XECB(1)' EQ '&POINTRG(1)').ER6               @DM14650 01650000
.NOCKR   ANOP                                                  @DM14650 01700000
&NAME    DS    0H                 START OF MACRO GENERATION    @DM12797 01750000
         AIF   (&PAR).CKR                                               01800000
         BAL   1,*+12             BRANCH AROUND CONSTANT                01850000
         DC    CL8'&XECB.'        XECB NAME                             01900000
         AGO   .STR                                                     01950000
.CKR     ANOP                                                           02000000
         AIF   ('&XECB'(2,2) EQ '1)').STR                               02050000
         LR    1,&XECB(1)         XECB NAME ADDRESS                     02100000
.STR     ANOP                                                           02150000
         AIF   ('&POINTRG'(2,2) EQ '14').SVC                            02200000
         LR    14,&POINTRG(1)     LOAD SLOT ADDRESS                     02250000
.SVC     SVC   94                                                       02300000
         MEXIT                                                          02350000
.ER1     MNOTE 3,'** XECB OPERAND IS REQUIRED **'                       02400000
&ERR     SETB  1                                                        02450000
         AGO   .CNNXT                                                   02500000
.ER2     MNOTE 3,'** POINTRG OPERAND IS REQUIRED **'                    02550000
&ERR     SETB  1                                                        02600000
         AGO   .NOPO                                                    02650000
.ER3     AIF ('&F' EQ '$' OR '&F' EQ '@' OR '&F' EQ '#').CNNXT          02700000
         MNOTE 3,'** XECB OPERAND IS INVALID **'                        02750000
&ERR     SETB  1                                                        02800000
         AGO   .CNNXT                                                   02850000
.ER4     MNOTE 3,'** XECB OPERAND MAY NOT USE REG 14 **'                02900000
&ERR     SETB  1                                                        02950000
         AGO   .CNNXT                                                   03000000
.ER5     MNOTE 3,'** POINTRG OPERAND MAY NOT USE REG 1 **'              03050000
&ERR     SETB  1                                                        03100000
         AGO   .NOPO                                                    03150000
.ER6     MNOTE 3,'** BOTH PARAM MAY NOT USE THE SAME REG **'            03200000
         AGO   .EREX                                                    03250000
.ER7     MNOTE 3,'** POINTRG OPERAND IS INVALID **'                     03300000
&ERR     SETB  1                                                        03350000
         AGO   .NOPO                                                    03400000
.EREX    ANOP                                                  @DM12797 03450000
         MNOTE 8,'** MACRO GENERATION TERMINATED **'                    03500000
         MEND                                                           03550000
