*% GO TO ALEMPLS ;   /*                                                 00050052
      MACRO                                                             00100052
&NAME    ALETMAC  &FUNC=,         FUNCTION                             *00150052
               &ALET=,            DATA SPACE ALET                      *00200052
               &DSNAME=,          DATA SPACE NAME                      *00250052
               &OWNER=,           DATA SPACE OWNER                     *00275052
               &STOKEN=,          DATA SPACE STOKEN                    *00300052
               &SCBADR=,          POINTER TO SPACE CONTROL BLOCK       *00350052
               &TASK=,            TID OF TASK WHOES DU-AL IS SCANNED   *00400052
               &PART=,            PIK OF PART. WHOES PASN-AL IS SCANNED*00450052
               &SIZE=,            SIZE OF DATA SPACE                   *00462552
               &MFG=,             TO PARAMETER AREA                    *00525052
               &DSECT=,           REQUEST MAPPING OF INTERFACE AREA    *00550052
               &ROUTINE=          FAST PATH TO PROCESSING ROUTINE       00575052
.*                                                                      00600052
         LCLA  &TFUNC,&TMFG,&TOFF,&GO                                   00650052
         LCLA  &OFFSET            OFFSET INTO IJBALET DIRECT CALL       00700052
         LCLA  &RALET             ALET REQUESTED    (INPUT OR OUTPUT)   00800052
         LCLA  &RDSNAME           DSNAME REQUESTED  (INPUT OR OUTPUT)   00850052
         LCLB  &ROWNER            OWNER REQUESTED   (OUTPUT ONLY)       00875052
         LCLB  &RSTOKEN           STOKEN REQUESTED  (OUTPUT ONLY)       00900052
         LCLB  &RSCBADR           SCBADR REQUESTED  (OUTPUT ONLY)       00925052
         LCLB  &RSIZE             SIZE REQUESTED    (OUTPUT ONLY)       00950052
         LCLB  &RPART             PART REQUESTED    (INP. AND/OR OUTP.) 00975052
         LCLB  &ISTASK            TASK IS SPECIFIED                     01000052
         LCLB  &ISPART            PART IS SPECIFIED                     01050052
         LCLB  &ISROUT            ROUTINE IS SPECIFIED                  01066652
         LCLB  &NATASK            TASK IS NOT APPLICABLE                01083352
         LCLB  &NAPART            PART IS NOT APPLICABLE                01116652
         LCLB  &APROUT            ROUTINE IS APPLICABLE                 01133352
         LCLC  &TOPE,&TADDR,&TADDR8,&BADDR                              01150052
.*                                                                      01450052
***************************************************************         01500052
*                                                             *         01550052
.*       IBM VSE / ADVANCED FUNCTIONS                         *         01600052
*        SUPERVISOR - ALETMAC - 5686-032-DB6                  *         01650052
.*                                                                      01700052
         AGO   .CPRIGHT                                                 01750052
.*                                                                      01800052
*        LICENSED MATERIALS - PROGRAM PROPERTY OF IBM         *         01850052
*        THIS MACRO IS "RESTRICTED MATERIALS OF IBM"          *         01900052
*        5686-032 (C) COPYRIGHT IBM CORP. 1991, 1993          *         01950052
*        SEE COPYRIGHT INSTRUCTIONS                           *         02000052
.*                                                                      02050052
.CPRIGHT ANOP                                                           02100052
*                                                             *         02150052
***************************************************************         02200052
.*                                                                      02250052
.**** START OF SPECIFICATIONS ***************************************** 02300052
.*                                                                      02350052
.*01* MODULE-TYPE = MACRO                                               02400052
.*                                                                      02450052
.*01* DESCRIPTIVE NAME = EXTRACT DATA SPACE INFORMATION                 02500052
.*  STATUS           =  NEW MACRO - FIRST RELEASE  5.2                  02550052
.*  FUNCTION         =  MACRO CHECKS USER GIVEN PARAMETERS FOR          02600052
.*                      RETRIEVAL OF DATA SPACE INFORMTION VIA CALL TO  02650052
.*                      MODULE IJBALET. A PARAMETER LIST IS BUILDT.     02700052
.*  NOTES            =                                                  02750052
.*  DEPENDENCIES     =                                                  02800052
.*  RESTRICTIONS     =                                                  02850052
.*  REGISTER CONVENT.=                                                  02900052
.*                      REGISTER 14 USED BY SENTER MACRO                02950052
.*                      REGISTER 15 USED BY SENTER MACRO                03000052
.*                      REGISTER 15 USED AS RETURNCODE REGISTER         03050052
.*                      REGISTER  0 USED AS WORK REGISTER               03100052
.*                      REGISTER  1 USED AS POINTER TO PARAMETER LIST   03150052
.*  PATCH LABEL      =  NONE                                            03200052
.*  MACRO TYPE       =  BILINGUAL                                       03250052
.*  PROCESSOR        =  ASM / PLX                                       03300052
.*  MACRO SIZE       =                                                  03350052
.*  ATTRIBUTES       =                                                  03400052
.*  ENTRY POINT      =  ALETMAC                                         03450052
.*  PURPOSE          =  SEE FUNCTION                                    03500052
.*  LINKAGE          =                                                  03550052
.*  CALLER           =                                                  03600052
.*  INPUT            =   (CALLING SEQUENCE)                             03650052
.*    1. ASM :                                                          03700052
.*  LABEL  ALETMAC FUNC=GETDSN|GETSTK|GETSCB|GETSIZE|GETALET|FREEALET   03740052
.*                         ALET=NAME1|(R1),                             03780052
.*                         DSNAME=NAME2|(R2),                           03820052
.*                         OWNER=NAME3|(R3),                            03860052
.*                         STOKEN=NAME4|(R4),                           03900052
.*                         SCBADR=NAME5|(R5),                           03950052
.*                         TASK=NAME6|(R6),                             04000052
.*                         PART=NAME7|(R7),                             04050052
.*                         SIZE=NAME8|(R8),                             04073352
.*                         MFG=NAME9|(R9),                              04119952
.*                         DSECT=YES|NO,                                04146652
.*                         ROUTINE=NAME10|(R10)                         04173352
.* 2. PLS :                                                             04200052
.*  ?LABEL: ALETMAC FUNC(GETDSN | GETSTK | GETSCB | GETSIZE | GETALET | 04233352
.*          FREEALET)                                                   04266652
.*                        ALET(NAME1 | (R1))                            04300052
.*                        DSNAME(NAME2 | (R2))                          04350052
.*                        OWNER(NAME3 | (R3))                           04381252
.*                        STOKEN(NAME4 | (R4))                          04412452
.*                        SCBADR((NAME5 | (R5))                         04443652
.*                        TASK(NAME6 | (R6))                            04474852
.*                        PART(NAME7 | (R7))                            04506052
.*                        SIZE(NAME8 | (R8))                            04537252
.*                        MFG(NAME9 | ADDR(NAME9) |(R9)                 04587252
.*                        DSECT(YES | NO) )                             04637252
.*                        ROUTINE(NAME10 | (R10));                      04700052
.*                                                                      04950052
.*                                                                      05000052
.* -------------------------------------------------------------------  05046452
.* | FUNC   | GETDSN | GETSTK | GETSCB | GETSIZE | GETALET | FREEALET|  05092852
.* -------------------------------------------------------------------  05139252
.* | ALET   |  R(I)  |   N/A  |  R(I)  |  R(I)  |  R(O)    |   N/A   |  05185652
.* | DSNAME |  R(O)  |   R(I) |  N/A   |  N/A   |  R(I)    |   N/A   |  05232052
.* | OWNER  |  R(O)  |   N/A  |  N/A   |  N/A   |  N/A     |   N/A   |  05278452
.* | STOKEN |  N/A   |   R(O) |  N/A   |  N/A   |  N/A     |   N/A   |  05324852
.* | SCBADR |  N/A   |   N/A  |   R(O) |  N/A   |  N/A     |   N/A   |  05371252
.* | TASK   |  N/A   |   O|M  |  N/A   |  N/A   |  N/A     |   N/A   |  05417652
.* | PART   |  N/A   |   O|M  |  N/A   |  N/A   |  R(I/O)  |   N/A   |  05464052
.* | SIZE   |  N/A   |   N/A  |  N/A   |  R(O)  |  N/A     |   N/A   |  05510452
.* | MFG    |   O    |    O   |   O    |   O    |   O      |    O    |  05556852
.* | ROUTINE|   O    |   N/A  |   O    |  N/A   |  N/A     |   N/A   |  05580052
.* -------------------------------------------------------------------  05603252
.*                                                                      05650052
.*                                                                      05700052
.*        R = REQUIRED                                                  05750052
.*            (I) AS INPUT PARAMETER                                    05762552
.*            (O) AS OUTPUT PARAMETER                                   05775052
.*            (I/O) AS INPUT/OUTPUT PARAMETER                           05787552
.*        M = MUTUAL EXCLUSIVE                                          05800052
.*        O = OPTIONAL                                                  05850052
.*        N/A = NOT APPLICABLE                                          05900052
.*                                                                      05912552
.*        * IF DSECT = YES IS SPECIFIED ALL OTHER OPERANDS ARE IGNORED  05925052
.*          ONLY DSECT = NO IS ALLOWED AS OPTIONAL OPERAND              05937552
.*                                                                      05950052
.*                                                                      06000052
.*  OUTPUT(ASSEMBLER)=                                                  06050052
.*                                                                      06100052
.*    REG1 --> 0 -----------------------                                06150052
.*               |FUNC|FLAGS| RESERVED |                                06200052
.*             4 -----------------------                                06250052
.*               |        ALET *       |                                06300052
.*             8 ----------------------------------------------         06350052
.*               |              DATA SPACE NAME *             |         06400052
.*            16 ----------------------------------------------         06450052
.*               |              STOKEN *                      |         06500052
.*            24 ----------------------------------------------         06550052
.*               |  TID *   |  PIK *   |                                06600052
.*            28 -----------------------                                06650052
.*               |         0           |                                06700052
.*               -----------------------                                06750052
.*               * DEPENDING ON WHAT WAS SPECIFIED                      06800052
.*                                                                      06850052
.*                                                                      06900052
.*              FUNCTION = X'01' FOR GETSDN                             06950052
.*                         X'02' FOR GETSTK                             07000052
.*                         X'03' FOR GETSCB                             07050052
.*                         X'04' FOR GETSIZE                            07062552
.*                         X'05' FOR GETALET                            07075052
.*                         X'06' FOR FREEALET                           07087552
.*                                                                      07100052
.*  OUTPUT(EXECUTION)= FUNC = GETSDN                                    07150052
.*                      8 BYTES DSNAME FOR SPCIFIED ALET                07200052
.*                      MOVED TO USER'S FIELD                           07250052
.*                      2 BYTES TASK ID OF DSNAME OWNER MOVED TO        07266652
.*                      USER'S FIELD OR REGISTER                        07283252
.*                                                                      07300052
.*                     FUNC = GETSTK                                    07350052
.*                      8 BYTES STOKEN FOR SPECIFIED DATA SPACE NAME    07400052
.*                      MOVED TO USER'S FIELD                           07450052
.*                                                                      07500052
.*                     FUNC = GETSCB                                    07550052
.*                      POINTER OF REQUESTED SPACE CONTROL BLOCK        07600052
.*                      MOVED TO USER'S FIELD OR REGISTER               07650052
.*                                                                      07700052
.*                     FUNC = GETSIZE                                   07705052
.*                      SIZE OF SPECIFIED DATA SPACE MOVED TO           07710052
.*                      USER'S FIELD OR REGISTER.                       07715052
.*                                                                      07720052
.*                     FUNC = GETALET                                   07725052
.*                      ALET OF SPECIFIED DATA SPACE IS MOVED TO        07730052
.*                      USER'S FIELD OR REGISTER.                       07735052
.*                      PID OF PARTITION HAVING ACCESS TO SPECIFIED     07740052
.*                      DATA SPACE IF MOVED TO USER'S FIELD OR REGISTER 07745052
.*                                                                      07746252
.*                     FUNC = FREEALET                                  07747452
.*                      ACCESS TO ALET DONE VIA GETALET IS RELEASED     07748652
.*                                                                      07750052
.*  EXIT NORMAL      =  COMPILER :                                      07800052
.*                      PARMLIST GENERATED                              07850052
.*                      EXECUTION:                                      07900052
.*                      REGISTER 15  =  0                               07950052
.*  EXIT ERROR       =  COMPILER :                                      08000052
.*                      MNOTES INDICATING THE ERROR                     08050052
.*                      EXECUTION:                                      08100052
.*                      REGISTER 15  =                                  08142852
.*                        04  REQUESTED DATA SPACE WAS NOT FOUND        08185652
.*                        08  INVALID FUNCTION, PARTITION OR TASK       08228452
.*                        0C  PSW KEY OF CALLER IS NOT ZERO,            08271252
.*                            FUNCTION IS NOT EXECUTED                  08314052
.*                        10  NO SYSTEM GETVIS IS AVAILABLE             08356852
.*                                                                      08400052
.*  EXTERNAL REFEREN.=                                                  08445652
.*                                                                      08491352
.*  ROUTINES         =  IJBALET                                         08500052
.*  DATA AREAS       =  NONE                                            08550052
.*  CONTROL BLOCKS   =  NONE                                            08600052
.*  TABLES           =  OWN TABLE GENERATED                             08650052
.*  MACROS           =  SENTER                                          08700052
.*  CHANGE ACTIVITIES=  NEW MACRO   FIRST RELEASE  5.2         @D52GDWS 08750052
.*                                                                      08800052
.*  LAST UPDATE      =  92/10/05                                        08850052
.*  MODIFIED REGISTER=  REGISTER 0,1,15                                 08900052
.*                                                                      08950052
.*                                                                      09000052
.** END OF SPECICATIONS *********************************************** 09050052
.********************************************************************** 09052052
.*                                                                      09054052
.* CHECK AND PROCESS DSECT OPERAND.                                     09056052
.*                                                                      09058052
.********************************************************************** 09060052
&TOPE    SETC  'DSECT'                                                  09062052
         AIF   (T'&DSECT EQ 'O').CHFUNC                                 09064052
         AIF   ('&DSECT' NE 'YES').CHDSECT                              09066052
ACLSADR  DSECT               MAPPING OF INTERNAL ALETMAC TABLE          09068052
ACLSFUNC DS    X             FUNCTION FIELD                             09070052
ACLSGDSN EQU   1             GETDSN FUNCTION CODE                       09072052
ACLSGSTK EQU   2             GETSTK FUNCTION CODE                       09074052
ACLSGSCB EQU   3             GETSCB FUNCTION CODE                       09076052
ACLSGSIZ EQU   4             GETSIZE FUNCTION CODE                      09076252
ACLSGALT EQU   5             GETALET FUNCTION CODE                      09076452
ACLSFALT EQU   6             FREEALET FUNCTION CODE                     09076652
ACLSFLGS DS    X             FLAG BYTE                                  09076852
ACLSSTSK EQU   X'80'         TASK IS SPECIFIED                          09077652
ACLSSPAR EQU   X'40'         PARTITION IS SPECIFIED                     09078452
ACLSFAST EQU   X'20'         ROUTINE PARAMETER WAS SPECIFIED            09078852
         DS    XL2           RESERVED                                   09079252
ACLSALET DS    XL4           DATA SPACE ALET                            09080052
ACLSDSNM DS    CL8           DATA SPACE NAME                            09082052
ACLSSTKN DS    CL8           DATA SPACE STOKEN                          09084052
ACLSTASK DS    XL2           TASK ID                                    09086052
ACLSPART DS    XL2           PARTITION ID                               09088052
ACLSOUT  DS    XL4           OUTPUT FIELD                               09090052
         AGO   .END                                                     09092052
.CHDSECT ANOP                                                           09094052
         AIF   ('&DSECT' NE 'NO').NOTE5                                 09096052
.********************************************************************** 09100052
.*                                                                      09150052
.* CHECK VALIDITY OF FUNC OPERAND.                                      09200052
.*                                                                      09250052
.********************************************************************** 09300052
.CHFUNC  ANOP                                                           09325052
&TOPE    SETC  'FUNC'                                                   09350052
         AIF   (T'&FUNC EQ 'O').NOTE1                                   09400052
         AIF   ('&FUNC' NE 'GETDSN').NGETDSN                            09450052
.**************************************************************         09500052
.*  FUNC = GETDSN                                             *         09550052
.*------------------------------------------------------------*         09600052
&TFUNC   SETA  1                  INDICATE GETSDN FOR OUTPUT            09650052
&RALET   SETA  2                  INDICATE ALET REQUESTED FOR INPUT     09700052
&RDSNAME SETA  1                  IND. DSNAME REQUESTED FOR OUTPUT      09750052
&ROWNER  SETB  1                  IND. OWNER REQUESTED FOR OUTPUT       09775052
&APROUT  SETB  1                  INDICATE ROUTINE MAY BE SPECIFIED     09781252
&NATASK  SETB  1                  INDICATE TASK NOT APPLICABLE          09787452
&NAPART  SETB  1                  INDICATE PART NOT APPLICABLE          09793652
         AGO   .CHALET                                                  09800052
.NGETDSN ANOP                                                           09850052
         AIF   ('&FUNC' NE 'GETSTK').NGETSTK                            09900052
.**************************************************************         09950052
.*  FUNC = GETSTK                                             *         10000052
.*------------------------------------------------------------*         10050052
&TFUNC   SETA  2                  INDICATE GETSTOKN                     10100052
&RDSNAME SETA  2                  IND. DSNAME REQUESTED FOR INPUT       10150052
&RSTOKEN SETB  1                  INDICATE STOKEN REQUIRED              10200052
         AGO   .CHALET                                                  10250052
.NGETSTK ANOP                                                           10300052
         AIF   ('&FUNC' NE 'GETSCB').NGETSCB                            10350052
.**************************************************************         10400052
.*  FUNC = GETSCB                                             *         10450052
.*------------------------------------------------------------*         10500052
&TFUNC   SETA  3                  INDICATE GETSCB                       10550052
&RALET   SETA  2                  INDICATE ALET REQUESTED FOR INPUT     10600052
&RSCBADR SETB  1                  INDICATE SCBADR REQUESTED             10650052
&APROUT  SETB  1                  INDICATE ROUTINE MAY BE SPECIFIED     10650652
&NATASK  SETB  1                  INDICATE TASK NOT APPLICABLE          10651252
&NAPART  SETB  1                  INDICATE PART NOT APPLICABLE          10651852
         AGO   .CHALET                                                  10652552
.NGETSCB ANOP                                                           10655052
         AIF   ('&FUNC' NE 'GETSIZE').NGETSIZ                           10657552
.**************************************************************         10660052
.*  FUNC = GETSIZE                                            *         10662552
.*------------------------------------------------------------*         10665052
&TFUNC   SETA  4                  INDICATE GETSIZE                      10667552
&RALET   SETA  2                  INDICATE ALET REQUESTED FOR INPUT     10670052
&RSIZE   SETB  1                  INDICATE SIZE REQUESTED               10672552
&NATASK  SETB  1                  INDICATE TASK NOT APPLICABLE          10673352
&NAPART  SETB  1                  INDICATE PART NOT APPLICABLE          10674152
         AGO   .CHALET                                                  10675052
.NGETSIZ ANOP                                                           10677552
         AIF   ('&FUNC' NE 'GETALET').NGETALE                           10680052
.**************************************************************         10682552
.*  FUNC = GETALET                                            *         10685052
.*------------------------------------------------------------*         10687552
&TFUNC   SETA  5                  INDICATE GETALET                      10690052
&RALET   SETA  1                  INDICATE ALET REQUESTED FOR OUTPUT    10692552
&RDSNAME SETA  2                  INDICATE DSNAME REQUESTED FOR INPUT   10695052
&RPART   SETB  1                  INDICATE PARTITION REQUESTED (I/O)    10697552
         AGO   .CHALET                                                  10697752
.NGETALE AIF   ('&FUNC' NE 'FREEALET').NOTE2                            10697952
.**************************************************************         10698152
.*  FUNC = FREEALET                                           *         10698352
.*------------------------------------------------------------*         10698552
&TFUNC   SETA  6                  INDICATE FREEALET                     10698752
&NATASK  SETB  1                  INDICATE TASK NOT APPLICABLE          10698952
&NAPART  SETB  1                  INDICATE PART NOT APPLICABLE          10699152
.********************************************************************** 10700052
.*                                                                      10750052
.* CHECK ALET OPERAND.                                                  10800052
.*                                                                      10850052
.********************************************************************** 10900052
.CHALET  ANOP                                                           10950052
&TOPE    SETC  'ALET'                                                   11000052
&GO      SETA  1                                                        11050052
         AIF   (T'&ALET EQ 'O' AND &RALET NE 0).NOTE1                   11100052
         AIF   (T'&ALET NE 'O' AND &RALET EQ 0).NOTE3                   11150052
.********************************************************************** 11200052
.*                                                                      11250052
.* CHECK DSNAME.                                                        11300052
.*                                                                      11350052
.********************************************************************** 11400052
.CHDSN   ANOP                                                           11450052
&TOPE    SETC  'DSNAME'                                                 11500052
&GO      SETA  2                                                        11550052
         AIF   (T'&DSNAME EQ 'O' AND &RDSNAME NE 0).NOTE1               11600052
         AIF   (T'&DSNAME NE 'O' AND &RDSNAME EQ 0).NOTE3               11650052
.********************************************************************** 11700052
.*                                                                      11750052
.* CHECK OWNER.                                                         11754552
.*                                                                      11759052
.********************************************************************** 11763552
.CHOWN   ANOP                                                           11768052
&TOPE    SETC  'OWNER'                                                  11772552
&GO      SETA  3                                                        11777052
         AIF   (T'&OWNER EQ 'O' AND &ROWNER).NOTE1                      11781552
         AIF   (T'&OWNER NE 'O' AND NOT &ROWNER).NOTE3                  11786052
.********************************************************************** 11790552
.*                                                                      11795052
.* CHECK STOKEN OPERAND                                                 11800052
.*                                                                      11850052
.********************************************************************** 11900052
.CHSTKN  ANOP                                                           11950052
&TOPE    SETC  'STOKEN'                                                 12000052
&GO      SETA  4                                                        12050052
         AIF   (T'&STOKEN EQ 'O' AND &RSTOKEN).NOTE1                    12100052
         AIF   (T'&STOKEN NE 'O' AND NOT &RSTOKEN).NOTE3                12150052
.********************************************************************** 12200052
.*                                                                      12250052
.* CHECK SCBADR OPERAND                                                 12300052
.*                                                                      12350052
.********************************************************************** 12400052
.CHSCBAD ANOP                                                           12450052
&TOPE    SETC  'SCBADR'                                                 12500052
&GO      SETA  5                                                        12550052
         AIF   (T'&SCBADR EQ 'O' AND &RSCBADR).NOTE1                    12600052
         AIF   (T'&SCBADR NE 'O' AND NOT &RSCBADR).NOTE3                12650052
.********************************************************************** 12654552
.*                                                                      12659052
.* CHECK SIZE OPERAND                                                   12663552
.*                                                                      12668052
.********************************************************************** 12672552
.CHSIZE  ANOP                                                           12677052
&TOPE    SETC  'SIZE'                                                   12681552
&GO      SETA  6                                                        12686052