         MACRO                                                          00050000
&NAME    CPCOM &POS,&ACMD=,&LCMD=                                       00100000
.*                                                                      00150000
         LCLA  &LAR,&LLR                                                00200000
         LCLC  &LABEL                                                   00250000
.*                                                                      00300000
*********************************************************************** 00350000
*                                                                       00400000
.*       IBM VSE / ADVANCED FUNCTIONS                          @D31UDGN 00450000
*        SUPERVISOR - CPCOM - 5686-007-06-C440                 @D31UDGN 00500000
.*                                                                      00550000
         AGO   .CPRIGHT                                                 00600000
.*                                                                      00650000
*        THIS MACRO IS "RESTRICTED MATERIALS OF IBM"           @D31UDGN 00700000
*        5686-007 (C) COPYRIGHT IBM CORP. 1979, 1989           @D31UDGN 00750000
*        ALL RIGHTS RESERVED                                   @D31UDGN 00800000
*        LICENSED MATERIALS - PROGRAM PROPERTY OF IBM          @D31UDGN 00850000
.*       SEE COPYRIGHT INSTRUCTIONS, G120-2083                 @D31UDGN 00900000
.*                                                                      00950000
.CPRIGHT ANOP                                                           01000000
*                                                                       01050000
*********************************************************************** 01100000
.*                                                                      01150000
.**** START OF SPECIFICATIONS ***************************************** 01200000
.*                                                                      01250000
.*01* MODULE-TYPE = MACRO                                               01300000
.*                                                                      01350000
.*01* DESCRIPTIVE NAME = SUBMIT CP COMMAND                              01400000
.*                                                                      01450000
.*  STATUS           =  NEW MACRO - FIRST RELEASE 2.1                   01500000
.*                                                                      01550000
.*  FUNCTION         =  LOADS THE SPECIFIED PARAMETERS IN               01600000
.*                      REGISTERS 0 AND 1 AND ISSUES SVC 118            01650000
.*                                                                      01700000
.*  RESTRICTIONS     =  TO BE USED ONLY BY VSE/POWER                    01750000
.*                                                                      01800000
.*  REGISTER CONVENT.=  REGISTER  0  COMMAND LENGTH                     01850000
.*                      REGISTER  1  ADDRESS OF COMMAND                 01900000
.*                      REGISTER 15  0 FOR INPUT, RET.CODE FOR OUTPUT   01950000
.*                                                                      02000000
.*  MACRO TYPE       =  ASSEMBLER                                       02050000
.*                                                                      02100000
.*  INPUT            =  LABEL   CPCOM  ACMD=(NAME|(R1)|(1)),            02150000
.*                                     LCMD=(N|(R0)|(0))                02200000
.*                                                                      02250000
.*  OUTPUT(ASSEMBLER)=  EXPANSION LOADING REGS. 0,1,15                  02300000
.*                      FOR SVC 118, MNOTES FOR ERRORS                  02350000
.*                                                                      02400000
.*  OUTPUT(EXECUTION)=  VALID REQUEST: VM COMPLETION CODE IN REG.15     02450000
.*                      NOT MODE=VM: RC=1 IN REG.15                     02500000
.*                      INVALID PARAMETERS: RC=2 IN REG.15              02550000
.*                                                                      02600000
.*  EXIT NORMAL      =  CONTROL RETURNED TO USER                        02650000
.*                                                                      02700000
.*  EXIT ERROR       =  CANCEL DUE TO ILLEGAL SVC, IF NOT FROM POWER    02750000
.*                                                                      02800000
.*  CHANGE ACTIVITIES=  NEW MACRO   FIRST RELEASE 2.1                   02850000
.*                      MACRO DISTRIBUTION CHANGE              @DA36770 02900000
.*                                                                      02950000
.*  A000000-999999                                             @D14CDFG 03000000
.*                                                                      03050000
.** END OF SPECICATIONS *********************************************** 03100000
&LABEL   SETC  '&NAME'                                                  03150000
         AIF   (T'&POS EQ 'O').NOPOS                                    03200000
         MNOTE 4,'INVALID POSITIONAL PARAMETER &POS IS IGNORED'         03250000
.NOPOS   ANOP                                                           03300000
.********************************************************************** 03350000
.*  PROCESS LCMD PARAMETER                                              03400000
.********************************************************************** 03450000
         AIF   (T'&LCMD NE 'O').LCMD10   IS LCMD SPECIFIED              03500000
         MNOTE 8,'MANDATORY PARAMETER LCMD OMITTED - MACRO IGNORED'     03550000
         MEXIT                                                          03600000
.LCMD10  AIF   ('&LCMD'(1,1) NE '(').LCMD20   REGISTER NOTATION         03650000
&LLR     SETA  1                         YES                            03700000
.LCMD20  ANOP                                                           03750000
.********************************************************************** 03800000
.*  PROCESS ACMD PARAMETER                                              03850000
.********************************************************************** 03900000
         AIF   (T'&ACMD NE 'O').ACMD10   IS ACMD SPECIFIED              03950000
         MNOTE 8,'MANDATORY PARAMETER ACMD OMITTED - MACRO IGNORED'     04000000
         MEXIT                                                          04050000
.ACMD10  AIF   ('&ACMD'(1,1) NE '(').ACMD20   REGISTER NOTATION         04100000
&LAR     SETA  1                         YES                            04150000
.ACMD20  ANOP                                                           04200000
.********************************************************************** 04250000
.*  GENERATE MACRO EXPANSION                                            04300000
.********************************************************************** 04350000
         AIF   (&LLR EQ 0).MGEN10        REGISTER NOTATION              04400000
         AIF   ('&LCMD(1)' EQ '0').MGEN20    YES, SKIP IF 0 SPECIFIED   04450000
&LABEL   LR    0,&LCMD(1)         LENGTH OF COMMAND                     04500000
&LABEL   SETC  ''                                                       04550000
         AGO   .MGEN20                                                  04600000
.MGEN10  ANOP                                                           04650000
&LABEL   LA    0,&LCMD.(,0)       LENGTH OF COMMAND                     04700000
&LABEL   SETC  ''                                                       04750000
.MGEN20  ANOP                                                           04800000
         AIF   (&LAR EQ 0).MGEN30        REGISTER NOTATION              04850000
         AIF   ('&ACMD(1)' EQ '1').MGEN40    YES, SKIP IF 1 SPECIFIED   04900000
&LABEL   LR    1,&ACMD(1)         ADDRESS OF COMMAND                    04950000
&LABEL   SETC  ''                                                       05000000
         AGO   .MGEN40                                                  05050000
.MGEN30  ANOP                                                           05100000
&LABEL   LA    1,&ACMD            ADDRESS OF COMMAND                    05150000
&LABEL   SETC  ''                                                       05200000
.MGEN40  ANOP                                                           05250000
&LABEL   SLR   15,15              INITIALIZE RET.CODE                   05300000
         SVC   118                                                      05350000
         MEND                                                           05400000
