         MACRO                                                          00001000
&NAME    DEBUG &FID,              IDENTIFIER                           *00002000
               &FUNC,             FUNCTION CODE                        *00003000
               &US1,              USER AREA 1                          *00004000
               &US2,              USER AREA 2                          *00005000
               &US3,              USER AREA 3                          *00006000
               &US4               USER AREA 4                           00007000
         LCLA  &TODO              FUNCTION CODE                         00008000
         LCLA  &OFF               OFFSET                                00009000
         LCLA  &WHAT              SUBFUNCTION NUMBER                    00010000
         LCLC  &FC                SUBFUNCTION CODE                      00011000
         LCLC  &ENDAD             END ADDRESS                           00012000
***************************************************************         00013000
*                                                             *         00014000
.*       IBM VSE / ADVANCED FUNCTIONS                         *         00015000
*        SUPERVISOR - DEBUG - 5686-066-45C                    *         00016490
.*                                                                      00017000
         AGO   .CPRIGHT                                                 00018000
.*                                                                      00019000
*        LICENSED MATERIALS - PROGRAM PROPERTY OF IBM         *         00020000
*        THIS MACRO IS "RESTRICTED MATERIALS OF IBM"          *         00021000
*        5686-032 (C) COPYRIGHT IBM CORP. 1994, 1999          *         00022490
*        SEE COPYRIGHT INSTRUCTIONS                           *         00023000
.*                                                                      00024000
.CPRIGHT ANOP                                                           00025000
*                                                             *         00026000
***************************************************************         00027000
.*                                                                      00028000
.**** START OF SPECIFICATIONS ***************************************** 00029000
.*                                                                      00030000
.*01* MODULE-TYPE = MACRO                                               00031000
.*                                                                      00032000
.*01* DESCRIPTIVE NAME = INTERFACE MACRO TO PROVIDE A DEBUG ENTRY       00033000
.*  STATUS           =  NEW MACRO - FIRST RELEASE  6.1                  00034000
.*  FUNCTION         =  PROVIDE THE INTERFACE TO THE DEBUG CODE         00035000
.*  NOTES            =                                                  00036000
.*  DEPENDENCIES     =                                                  00037000
.*  RESTRICTIONS     =                                                  00038000
.*  CONVENTIONS      =  MAINTAIN CONDITION CODE AS WELL AS              00039000
.*                      REGISTER CONTENTS                               00040000
.*  PATCH LABEL      =  NONE                                            00041000
.*  MACRO TYPE       =                                                  00042000
.*  PROCESSOR        =  ASM                                             00043000
.*  MACRO SIZE       =                                                  00044000
.*  ATTRIBUTES       =                                                  00045000
.*  ENTRY POINT      =                                                  00046000
.*  PURPOSE          =  SEE FUNCTION                                    00047000
.*  LINKAGE          =                                                  00048000
.*  CALLER           =                                                  00049000
.*  INPUT            =   (CALLING SEQUENCE)                             00050000
.*                                                                      00051000
.*  EXTERNAL REFEREN.=                                                  00052000
.*                                                                      00053000
.*  ROUTINES         =                                                  00054000
.*  DATA AREAS       =  PAGE ZERO                                       00055000
.*  CONTROL BLOCKS   =  NONE                                            00056000
.*  TABLES           =                                                  00057000
.*  MACROS           =                                                  00058000
.*  CHANGE ACTIVITIES=  NEW MACRO   FIRST RELEASE  6.1         @D61NDAP 00059000
.*                                                                      00060000
.*       PROVIDE A NEW FUNCTION FOR SECURITY EVENT TRACE       @D64XXAP 00061190
.*                                                                      00061380
.*  LAST UPDATE      =  99/01/16                                        00061570
.*  MODIFIED REGISTER=  REGISTER 14,15                                  00062000
.*                                                                      00063000
.*                                                                      00064000
.** END OF SPECICATIONS *********************************************** 00065000
         ACTR  50                                                       00066000
&NAME    DC    0H'0'         ENTRY POINT                                00067000
         AIF   ('&FUNC' EQ 'XXDBGMC').YDBG010                           00068000
         AIF   ('&FUNC' EQ 'GETVIS').YGET010                            00069000
         AIF   ('&FUNC' EQ 'LOCK').YLCK010                              00070000
         AIF   ('&FUNC' EQ 'SEC').YSEC010                               00070500
.NOTE5   MNOTE 8,'&FUNC IS AN UNSUPPORTED FUNCTION '                    00071000
         MEXIT                                                          00072000
.YSEC010 ANOP                                                           00072300
&TODO    SETA  &TODO+1   4   WE WANT SECURITY FUNCTION                  00072600
.YGET010 ANOP                                                           00073000
&TODO    SETA  &TODO+1   3   WE WANT GETVIS   FUNCTION                  00074490
.YLCK010 ANOP                                                           00075000
&TODO    SETA  &TODO+1   2   WE WANT LOCK     FUNCTION                  00076490
.YDBG010 ANOP                                                           00077000
&TODO    SETA  &TODO+1   1   WE WANT DEBUG    FUNCTION                  00078490
         AIF   (&TODO EQ 1).YDBG020                                     00079000
         AIF   (&TODO EQ 2).YLCK020                                     00080000
         AIF   (&TODO EQ 3).YGET020                                     00080090
.*                                                                      00080180
.*       HANDLE SECURITY FUNCTIONS                                      00080270
.*                                                                      00080360
.YSEC020 ANOP                                                           00080450
&WHAT    SETA  1                                                        00080540
         AIF   ('&FID' EQ 'ENTRY').ALLOK                                00080630
&WHAT    SETA  2                                                        00080720
         AIF   ('&FID' EQ 'DISP').ALLOK                                 00080810
         AGO   .ERRMSG                                                  00080900
.*                                                                      00081000
.*       HANDLE GETVIS   FUNCTIONS                                      00082000
.*                                                                      00083000
.YGET020 ANOP                                                           00084000
&WHAT    SETA  1                                                        00085000
         AIF   ('&FID' EQ 'FREE').ALLOK                                 00086000
&WHAT    SETA  2                                                        00087000
         AIF   ('&FID' EQ 'GET').ALLOK                                  00088000
         AGO   .ERRMSG                                                  00089000
.*                                                                      00090000
.*       HANDLE LOCK     FUNCTIONS                                      00091000
.*                                                                      00092000
.YLCK020 ANOP                                                           00093000
&WHAT    SETA  1                                                        00094000
         AIF   ('&FID' EQ 'LOCK').ALLOK                                 00095000
&WHAT    SETA  2                                                        00096000
         AIF   ('&FID' EQ 'UNLOCK').ALLOK                               00097000
         AGO   .ERRMSG                                                  00098000
.*                                                                      00099000
.*       HANDLE XXDBGMC  FUNCTIONS                                      00100000
.*                                                                      00101000
.YDBG020 ANOP                                                           00102000
&WHAT    SETA  0                           0                            00103000
         AIF   ('&FID' EQ 'PROGCHK').ALLOK                              00104000
&WHAT    SETA  &WHAT+1                     1                            00105000
&WHAT    SETA  &WHAT+1                     2                            00106000
         AIF   ('&FID' EQ 'ALLREGS').ALLOK                              00107000
&WHAT    SETA  &WHAT+1                     3                            00108000
         AIF   ('&FID' EQ 'ERAPSW').ALLOK                               00109000
&WHAT    SETA  &WHAT+1                     4                            00110000
         AIF   ('&FID' EQ 'IOFIELDS').ALLOK                             00111000
&WHAT    SETA  &WHAT+1                     5                            00112000
         AIF   ('&FID' EQ 'SIOFLDS').ALLOK                              00113000
&WHAT    SETA  &WHAT+1                     6                            00114000
         AIF   ('&FID' EQ 'EXFIELDS').ALLOK                             00115000
&WHAT    SETA  &WHAT+1                     7                            00116000
         AIF   ('&FID' EQ 'DISPFLDS').ALLOK                             00117000
&WHAT    SETA  &WHAT+1                     8                            00118000
         AIF   ('&FID' EQ 'SVFIELDS').ALLOK                             00119000
&WHAT    SETA  &WHAT+1                     9                            00120000
         AIF   ('&FID' EQ 'RATIB').ALLOK                                00121000
&WHAT    SETA  &WHAT+1                    10                            00122000
         AIF   ('&FID' EQ 'XXDUMPNR').ALLOK                             00123000
&WHAT    SETA  &WHAT+1                    11                            00124000
         AIF   ('&FID' EQ 'DSPLYDAT').ALLOK                             00125000
&WHAT    SETA  &WHAT+1                    12                            00126000
         AIF   ('&FID' EQ 'USERDATA').ALLOK                             00127000
&WHAT    SETA  &WHAT+1                    13                            00128000
         AIF   ('&FID' EQ 'USERDATA').ALLOK                             00129000
&WHAT    SETA  &WHAT+1                    14                            00130000
         AIF   ('&FID' EQ 'USERDATA').ALLOK                             00131000
&WHAT    SETA  &WHAT+1                    15                            00132000
         AIF   ('&FID' EQ 'USERDATA').ALLOK                             00133000
&WHAT    SETA  &WHAT+1                    16                            00134000
         AIF   ('&FID' EQ 'STOP').ALLOK                                 00135000
.*                                                                      00136000
.ERRMSG  MNOTE 8,'&FID IS AN UNSUPPORTED FUNCTION CALL'                 00137000
         MEXIT                                                          00138000
.ALLOK   ANOP                                                           00139000
&OFF     SETA  8                                                        00140000
         AIF   ('&FUNC' NE 'XXDBGMC' OR '&FID' NE 'USERDATA').ALLOK30   00141590
         AIF   (T'&US1 NE 'O').ALLOK20                                  00142180
.ERRM010 ANOP                                                           00143000
         MNOTE 8,'REQUIRED DATA-AREA ADDRESS IS MISSING'                00144000
         MEXIT                                                          00145000
.ALLOK20 ANOP                                                           00146490
&OFF     SETA  &OFF+4               ACCOUNT FOR ADDRESS                 00147000
         AIF   (T'&US2 EQ 'O').ALLGENC                                  00148490
&OFF     SETA  &OFF+4               ACCOUNT FOR ADDRESS                 00149000
         AIF   (T'&US3 EQ 'O').ALLGENC                                  00150490
&OFF     SETA  &OFF+4               ACCOUNT FOR ADDRESS                 00151000
         AIF   (T'&US4 EQ 'O').ALLGENC                                  00152490
&OFF     SETA  &OFF+4               ACCOUNT FOR ADDRESS                 00153000
         AGO   .ALLGENC                                                 00154590
.ALLOK30 AIF   (T'&US1 EQ 'O').ALLGENC                                  00155180
         MNOTE 8,'&US1 IS AN INVALID POSITIONAL PARAMETER '             00156000
         MEXIT                                                          00157000
.ALLGENC ANOP                                                           00158490
.*                                                                      00159000
.*       A T T E N T I O N   MAKE SURE THAT THE MACRO                   00160000
.*                           EXPANSION DOES NOT CHANGE THE CC           00161000
.*                                                                      00162000
         AIF   ('&FUNC' NE 'SEC' OR '&FID' NE 'ENTRY').ALLG010          00163090
         TDSERV FUNC=DEBUG                                     @D66ODOW         
.* MACRO EXPANDS INTO --->                                                      
.*       LA    15,152         FC=DEBUG ENTRY CALL                       00163180
.*       SVC   117            LET DISPATCHER DO ITS WORK                00163270
         MEXIT                                                          00163360
.ALLG010 STM   14,1,XXDBGSRE-SYSS00(0) SAVE REGISTER 14-1               00163450
         L     14,XXADEBUG-SYSS00(0)   ROUTINE ADDRESS                  00164000
         BASSM 15,14          SET UP DEBUG ENTRY                        00165000
         B     &OFF.(,15)     SKIP CONSTANT                             00166000
         DC    AL1(&TODO),AL3(&WHAT) PARAMETER                          00167000
         AIF   (T'&US1 EQ 'O').NOUS99                                   00168000
&ENDAD   SETC  '&US1'         SAVE END ADDRESS                          00169490
         AIF   (T'&US2 EQ 'O').NOUS90                                   00170000
         DC    AL4(&US1)      DATA AREA                                 00171000
&ENDAD   SETC  '&US2'         SAVE END ADDRESS                          00172490
         AIF   (T'&US3 EQ 'O').NOUS90                                   00173000
         DC    AL4(&US2)      DATA AREA                                 00174000
&ENDAD   SETC  '&US3'         SAVE END ADDRESS                          00175490
         AIF   (T'&US4 EQ 'O').NOUS90                                   00176000
         DC    AL4(&US3)      DATA AREA                                 00177000
&ENDAD   SETC  '&US4'         SAVE END ADDRESS                          00178490
.NOUS90  ANOP                                                           00179000
         DC    AL4(&ENDAD+X'80000000') LAST DATA AREA                   00180000
.NOUS99  ANOP                                                           00181000
         LM    14,1,XXDBGSRE-SYSS00(0) RESTORE REGISTER                 00182000
         MEND                                                           00183000
