*% GOTO DEVREPLS ;  /*   PL/S COMMENT COVERING ASSEMBLER CODE           00050000
      MACRO                                                             00100000
&NAME    DEVREL &PU=,                                                  *00150000
               &PART=                                                   00200000
.*                                                                      00250000
         LCLA  &FC                            FUNCTION CODE             00300000
.*                                                                      00350000
***************************************************************         00400000
*                                                             *@D51MDGL 00450000
.*       IBM VSE / ADVANCED FUNCTIONS                         *@D51MDGL 00500000
*        SUPERVISOR - DEVREL - 5686-007-06-C440               *@D31UDGN 00550000
.*                                                                      00600000
         AGO   .CPRIGHT                                                 00650000
.*                                                                      00700000
*        LICENSED MATERIALS - PROGRAM PROPERTY OF IBM         *@D51MDGL 00750000
*        THIS MACRO IS "RESTRICTED MATERIALS OF IBM"          *@D51MDGL 00800000
*        5686-007 (C) COPYRIGHT IBM CORP. 1979, 1989          *@D31UDGN 00850000
*        SEE COPYRIGHT INSTRUCTIONS                           *@D51MDGL 00900000
.*                                                                      00950000
.CPRIGHT ANOP                                                           01000000
*                                                             *@D51MDGL 01050000
***************************************************************         01100000
.*                                                                      01150000
.**** START OF SPECIFICATIONS ***************************************** 01200000
.*                                                                      01250000
.*01* MODULE-TYPE = MACRO                                               01300000
.*                                                                      01350000
.*01* DESCRIPTIVE NAME = MAINTAIN USAGE COUNTER AND OWNERSHIP           01400000
.*                       OF SPECIFIED DEVICE                            01450000
.*                                                                      01500000
.*  STATUS           =  NEW MACRO - FIRST RELEASE 2.1                   01550000
.*  FUNCTION         =  THE MACRO CHECKS THE USER SUPPLIED              01600000
.*                      OPERANDS AND SETS THE CORRESPONDING             01650000
.*                      FUNCTION CODE FOR SVC107.                       01700000
.*  NOTES            =  NONE                                            01750000
.*  DEPENDENCIES     =  NONE                                            01800000
.*  RESTRICTIONS     =  NONE                                            01850000
.*  REGISTER CONVENT.=  REGISTER  0 CONTAINS PUB INDEX                  01900000
.*                      REGISTER  1 CONTAINS PARTITION ID               01950000
.*                      REGISTER 15 CONTAINS THE FUNCTION CODE          02000000
.*  PATCH LABEL      =  NONE                                            02050000
.*  MACRO TYPE       =  BILINGUAL                                       02100000
.*  PROCESSOR        =  ASM/PLS                                         02150000
.*  MACRO SIZE       =                                                  02200000
.*  ATTRIBUTES       =  NONE                                            02250000
.*  ENTRY POINT      =  DEVREL                                          02300000
.*  PURPOSE          =  SEE FUNCTION                                    02350000
.*  LINKAGE          =  SEE INPUT                                       02400000
.*  CALLER           =                                                  02450000
.*  INPUT            =                                                  02500000
.*                                                                      02550000
.*  CALLING SEQUENCE  ASSEMBLER :                                       02600000
.*                                                                      02650000
.*        LABEL   DEVREL  PU=NAME1 | (R1) | (0)                         02700000
.*                       ,PART=NAME2 | (R2) | (1)                       02750000
.*                                                                      02800000
.*  CALLING SEQUENCE  PLS :                                             02850000
.*                                                                      02900000
.*      ? LABEL:  DEVREL  PU((NAME1)|(R1)|(0))                          02950000
.*                        PART((NAME2)|(R2)|(1));                       03000000
.*                                                                      03050000
.*                      PU   =                                          03100000
.*                             PHYSICAL UNIT NUMBER (SAME AS PUB        03150000
.*                             INDEX) OF DEVICE FOR WHICH USAGE         03200000
.*                             COUNTER AND OWNERSHIP IS TO BE RESET.    03250000
.*                                                                      03300000
.*                      PART =                                          03350000
.*                             NAME OF A 2-BYTE FIELD OR REGISTER       03400000
.*                             CONTAINING THE PARTITION ID TO WHICH     03450000
.*                             THE FIELD BELONGS (MANDANTORY).          03500000
.*                                                                      03550000
.*  OUTPUT(ASSEMBLER)= NECESSARY INSTRUCTIONS TO LOAD                   03600000
.*                     REGISTER 0,1 AND 15                              03650000
.*                     AND TO GENERATE SVC 107                          03700000
.*                                                                      03750000
.*                     FUNCTIONCODES USED FOR DEVREL  (HEX)             03800000
.*                                      45                              03850000
.*                                                                      03900000
.*  MACROS GENERATING SVC 107 :                                         03950000
.*         GETFLD,   MODFLD,   TREADY,   TSTOP,   RLOCK,                04000000
.*         SRCHFLD,  DEVUSE,   DEVREL,   ENTER,   LEAVE,                04050000
.*         VIOPOINT                                                     04100000
.*                                                                      04150000
.*   ====> CHECK SUPERVISOR GENERATION MACRO SGTINF FOR HIGHEST         04200000
.*   ====> USED FUNCTION CODE WHEN EXTENDING DEVREL                     04250000
.*                                                                      04300000
.*  OUTPUT(EXECUTION)=  RETURN CODE IN REGISTER 15 :                    04350000
.*                              0 REQUEST COMPLETE                      04400000
.*                                                                      04450000
.*  EXIT NORMAL      =  COMPILER :                                      04500000
.*                      MACRO EXPANSION                                 04550000
.*                      EXECUTION:                                      04600000
.*                      CONTROL RETURNED TO USER                        04650000
.*                                                                      04700000
.*  EXIT ERROR       =  COMPILER :                                      04750000
.*                      MNOTES INDICATING THE ERROR                     04800000
.*                      EXECUTION:                                      04850000
.*                      RETURN CODES (SEE OUTPUT)                       04900000
.*                                                                      04950000
.*                                                                      05000000
.*  EXTERNAL REFEREN.=  NONE                                            05050000
.*  ROUTINES         =  SVC 107 (SUPERVISOR GENERATION MACRO SGTINF)    05100000
.*  DATA AREAS       =  NONE                                            05150000
.*  CONTROL BLOCKS   =  NONE                                            05200000
.*  TABLES           =  NONE                                            05250000
.*  MACROS           =  NONE                                            05300000
.*  CHANGE ACTIVITIES=  NEW MACRO   FIRST RELEASE 2.1                   05350000
.*  MODIFIED REGISTER=  REGISTER 0,1 AND 15                             05400000
.*                                                                      05450000
.*  A000000-999999                                             @D14CDWK 05500000
.*                                                                      05550000
.** END OF SPECICATIONS *********************************************** 05600000
.*                                                                      05650000
         AIF   (T'&PU EQ 'O').NOTE01          PUB INDEX REQUIRED        05700000
         AIF   (T'&PART EQ 'O').NOTE02        PARTITION ID REQUIRED     05750000
         AIF   ('&PART' EQ '(0)').NOTE03      MUST NOT BE REGISTER 0    05800000
&FC      SETA  69                             FC FOR DEVREL             05850000
&NAME    DC    0H'0'                                                    05900000
         AIF   ('&PU' EQ '(0)').SETPA         PUB INDEX ALREADY LOADED  05950000
         AIF   ('&PU'(1,1) EQ '(').PUREG      REGISTER NOTATION         06000000
         LH    0,&PU                          LOAD PUB INDEX            06050000
         AGO   .SETPA                                                   06100000
.PUREG   ANOP                                                           06150000
         LR    0,&PU(1)                       LOAD PUB INDEX            06200000
.SETPA   ANOP                                                           06250000
         AIF   ('&PART' EQ '(1)').GENFC       PART.-ID ALREADY LOADED   06300000
         AIF   ('&PART'(1,1) EQ '(').PAREG    REGISTER NOTATION         06350000
         LH    1,&PART                        LOAD PARTITION ID         06400000
         AGO   .GENFC                                                   06450000
.PAREG   ANOP                                                           06500000
         LR    1,&PART(1)                     LOAD PARTITION ID         06550000
.GENFC   ANOP                                                           06600000
         LA    15,&FC                         SET FUNCTION CODE         06650000
         SVC   107                            HANDLE REQUEST            06700000
         MEXIT                                                          06750000
.*                                                                      06800000
.*--------------------------------------------------------------------- 06850000
.*       MNOTES                                                         06900000
.*--------------------------------------------------------------------- 06950000
.*                                                                      07000000
.NOTE01  MNOTE 8,'PU OPERAND REQUIRED FOR DEVREL MACRO'                 07050000
         MEXIT                                                          07100000
.NOTE02  MNOTE 8,'PART OPERAND REQUIRED FOR DEVREL MACRO'               07150000
         MEXIT                                                          07200000
.NOTE03  MNOTE 8,'REGISTER 0 MUST NOT BE USED FOR PART OPERAND'         07250000
         MEND                                                           07300000
*                                                                       07350000
*---------------------------------------------------------------------- 07400000
*---------------------------------------------------------------------- 07450000
*        PL/S PART OF MACRO FOLLOWS                                     07500000
*---------------------------------------------------------------------- 07550000
*---------------------------------------------------------------------- 07600000
*                                      END OF PL/S COMMENT           */ 07650000
*%DEVREPLS :  ;                                                         07700000
*%DEVREL: MACRO    KEYS(PU,PART);                                       07750000
* /*-----------------------------------------------------------------*/ 07800000
* /*     LIST MACRO INVOCATION IN SOURCE                             */ 07850000
* /*-----------------------------------------------------------------*/ 07900000
*    ANS ('/* '||MACLABEL||' '||MACNAME||' '||MACLIST||' '||MACKEYS||   07950000
*         '*/') COL(MACLMAR);                                           08000000
* ANS ('/*                                                  */')        08050000
* COL(MACLMAR);                                                         08100000
* ANS ('/*      SUPERVISOR - DEVREL - 5686-007-06-C44       */')        08150000
* COL(MACLMAR);                                                         08200000
* ANS ('/*                                                  */')        08250000
* COL(MACLMAR);                                                         08300000
* /*-----------------------------------------------------------------*/ 08350000
* /*     CHECK SPECIFIED OPERANDS                                    */ 08400000
* /*-----------------------------------------------------------------*/ 08450000
*    IF NUMBER(PU) = 0  THEN           /* UNIT NUMBER REQUIRED       */ 08500000
*       GO TO MERR01;                  /*                            */ 08550000
*    IF NUMBER(PART)= 0  THEN          /* PARTITION-ID REQUIRED      */ 08600000
*       GO TO MERR02;                  /*                            */ 08650000
*    IF PART(1) = '0' THEN             /* MUST NOT BE REGISTER 0     */ 08700000
*       GO TO MERR03;                  /*                            */ 08750000
* /*-----------------------------------------------------------------*/ 08800000
* /*     DECLARE NECESSARY REGISTER                                  */ 08850000
* /*-----------------------------------------------------------------*/ 08900000
* IF PU(1) ¬= '0' THEN                 /* UNIT NUMBER NOT REGISTER 0 */ 08950000
*    DO;                               /* THEN DECLARE REGISTER 0    */ 09000000
*    ANS ('DCL REG0'||MACINDEX||' REG(0) PTR(31);')RESCAN SKIP          09050000
*    COL(10);                                                           09100000
*    ANS ('/* SPECIFY REGISTER 0        */') COL(41);                   09150000
*    END;                              /*                            */ 09200000
* ELSE;                                /*                            */ 09250000
* IF PART(1) ¬= '1' THEN               /* PART ID NOT REGISTER 1     */ 09300000
*    DO;                               /* THEN DECLARE REGISTER 1    */ 09350000
*    ANS ('DCL REG1'||MACINDEX||' REG(1) PTR(31);')RESCAN SKIP          09400000
*    COL(10);                                                           09450000
*    ANS ('/* SPECIFY REGISTER 1        */') COL(41);                   09500000
*    END;                              /*                            */ 09550000
* ELSE;                                /*                            */ 09600000
* ANS ('DCL REGF'||MACINDEX||' REG(15) PTR(31);')RESCAN SKIP COL(10);   09650000
* ANS ('/* SPECIFY REGISTER 15       */') COL(41);                      09700000
* IF PU(1) ¬= '0' THEN                 /* UNIT NUMBER NOT REGISTER 0 */ 09750000
* ANS ('RFY (REG0'||MACINDEX||') RSTD;')RESCAN SKIP COL(10);            09800000
* IF PART(1) ¬= '1' THEN               /* PART ID REGISTER 1         */ 09850000
* ANS ('RFY (REG1'||MACINDEX||') RSTD;')RESCAN SKIP COL(10);            09900000
* ANS ('RFY (REGF'||MACINDEX||') RSTD;')RESCAN SKIP COL(10);            09950000
* IF MACLABEL ¬= ''  THEN              /* IF LABEL GIVEN             */ 10000000
* ANS (''||MACLABEL||';') COL(MACLMAR);                                 10050000
* /*-----------------------------------------------------------------*/ 10100000
* /*     SET PU OPERAND                                              */ 10150000
* /*-----------------------------------------------------------------*/ 10200000
* IF PU(1) ¬= '0' THEN                 /* UNIT NUMBER NOT REGISTER 0 */ 10250000
*    DO;                               /*                            */ 10300000
*    ANS ('REG0'||MACINDEX||' = '||PU(1)||';')RESCAN SKIP COL(10);      10350000
*    ANS ('/* SET UNIT NUMBER           */') COL(41);                   10400000
*    END;                              /*                            */ 10450000
* ELSE;                                /*                            */ 10500000
* /*-----------------------------------------------------------------*/ 10550000
* /*     SET PART OPERAND                                            */ 10600000
* /*-----------------------------------------------------------------*/ 10650000
* IF PART(1) ¬= '1' THEN               /* PART ID NOT REGISTER 1     */ 10700000
*    DO;                               /*                            */ 10750000
*    ANS ('REG1'||MACINDEX||' = '||PART(1)||';')RESCAN SKIP COL(10);    10800000
*    ANS ('/* SET PARTITION ID          */') COL(41);                   10850000
*    END;                              /*                            */ 10900000
* ELSE;                                /*                            */ 10950000
* /*-----------------------------------------------------------------*/ 11000000
* /*     SET FUNCTION CODE AND SVC                                   */ 11050000
* /*-----------------------------------------------------------------*/ 11100000
* ANS ('REGF'||MACINDEX||' = 69 ;')RESCAN SKIP COL(10);                 11150000
* ANS ('/* INDICATE FUNCTION         */') COL(41);                      11200000
* ANS ('SVC(107);') SKIP COL(10);                                       11250000
* ANS ('/*                           */') COL(41);                      11300000
* IF PU(1) ¬= '0' THEN                 /* UNIT NUMBER NOT REGISTER 0 */ 11350000
* ANS ('RFY (REG0'||MACINDEX||')UNRSTD;')RESCAN SKIP COL(10);           11400000
* IF PART(1) ¬= '1' THEN               /* PART ID REGISTER 1         */ 11450000
* ANS ('RFY (REG1'||MACINDEX||')UNRSTD;')RESCAN SKIP COL(10);           11500000
* ANS ('RFY (REGF'||MACINDEX||')UNRSTD;')RESCAN SKIP COL(10);           11550000
* RETURN CODE(0);                      /* EXIT                       */ 11600000
* /*-----------------------------------------------------------------*/ 11650000
* /*     MACRO NOTES                                                 */ 11700000
* /*-----------------------------------------------------------------*/ 11750000
* MERR01 :                             /*                            */ 11800000
* ANS MSG('PU OPERAND REQUIRED FOR DEVREL MACRO ;');                    11850000
* ANS ('/* PU OPERAND REQUIRED FOR DEVREL MACRO */') COL(MACLMAR);      11900000
* RETURN CODE(8);                      /*                            */ 11950000
* MERR02 :                             /*                            */ 12000000
* ANS MSG('PART OPERAND REQUIRED FOR DEVREL MACRO ;');                  12050000
* ANS ('/* PART OPERAND REQUIRED FOR DEVREL MACRO */') COL(MACLMAR);    12100000
* RETURN CODE(8);                      /*                            */ 12150000
* MERR03 :                             /*                            */ 12200000
* ANS MSG('REGISTER 0 MUST NOT BE USED FOR PART OPERAND ;');            12250000
* ANS ('/* REGISTER 0 MUST NOT BE USED FOR PART OPERAND */')            12300000
* COL(MACLMAR);                                                         12350000
* RETURN CODE(8);                      /*                            */ 12400000
*                                                                       12450000
*%END ;                                /*                            */ 12500000
