*% GOTO DEVUSPLS ;  /*   PL/S COMMENT COVERING ASSEMBLER CODE           00050000
      MACRO                                                             00100000
&NAME    DEVUSE &PU=,                                                  *00150000
               &PART=                                                   00200000
.*                                                                      00250000
         LCLA  &FC                            FUNCTION CODE             00300000
.*                                                                      00350000
***************************************************************         00400000
*                                                             *@D51MDGL 00450000
.*       IBM VSE / ADVANCED FUNCTIONS                         *@D51MDGL 00500000
*        SUPERVISOR - DEVUSE - 5686-007-06-C440               *@D31UDGN 00550000
.*                                                                      00600000
         AGO   .CPRIGHT                                                 00650000
.*                                                                      00700000
*        LICENSED MATERIALS - PROGRAM PROPERTY OF IBM         *@D51MDGL 00750000
*        THIS MACRO IS "RESTRICTED MATERIALS OF IBM"          *@D51MDGL 00800000
*        5686-007 (C) COPYRIGHT IBM CORP. 1979, 1989          *@D31UDGN 00850000
*        SEE COPYRIGHT INSTRUCTIONS                           *@D51MDGL 00900000
.*                                                                      00950000
.CPRIGHT ANOP                                                           01000000
*                                                             *@D51MDGL 01050000
***************************************************************         01100000
.*                                                                      01150000
.**** START OF SPECIFICATIONS ***************************************** 01200000
.*                                                                      01250000
.*01* MODULE-TYPE = MACRO                                               01300000
.*                                                                      01350000
.*01* DESCRIPTIVE NAME = MAINTAIN USAGE COUNTER AND OWNERSHIP           01400000
.*                       OF SPECIFIED DEVICE                            01450000
.*                                                                      01500000
.*  STATUS           =  NEW MACRO - FIRST RELEASE 2.1                   01550000
.*  FUNCTION         =  THE MACRO CHECKS THE USER SUPPLIED              01600000
.*                      OPERANDS AND SETS THE CORRESPONDING             01650000
.*                      FUNCTION CODE FOR SVC107.                       01700000
.*  NOTES            =  NONE                                            01750000
.*  DEPENDENCIES     =  NONE                                            01800000
.*  RESTRICTIONS     =  NONE                                            01850000
.*  REGISTER CONVENT.=  REGISTER  0 CONTAINS PUB INDEX                  01900000
.*                      REGISTER  1 CONTAINS PARTITION ID               01950000
.*                      REGISTER 15 CONTAINS THE FUNCTION CODE          02000000
.*  PATCH LABEL      =  NONE                                            02050000
.*  MACRO TYPE       =  BILINGUAL                                       02100000
.*  PROCESSOR        =  ASM/PLS                                         02150000
.*  MACRO SIZE       =                                                  02200000
.*  ATTRIBUTES       =  NONE                                            02250000
.*  ENTRY POINT      =  DEVUSE                                          02300000
.*  PURPOSE          =  SEE FUNCTION                                    02350000
.*  LINKAGE          =  SEE INPUT                                       02400000
.*  CALLER           =                                                  02450000
.*  INPUT            =                                                  02500000
.*                                                                      02550000
.*  CALLING SEQUENCE  ASSEMBLER :                                       02600000
.*                                                                      02650000
.*        LABEL   DEVUSE  PU=NAME1 | (R1) | (0)                         02700000
.*                       ,PART=NAME2 | (R2) | (1)                       02750000
.*                                                                      02800000
.*  CALLING SEQUENCE  PLS :                                             02850000
.*                                                                      02900000
.*      ? LABEL:  DEVUSE   PU((NAME1)|(R1)|(0))                         02950000
.*                         PART((NAME2)|(R2)|(1));                      03000000
.*                                                                      03050000
.*                      PU   =                                          03100000
.*                             PHYSICAL UNIT NUMBER (SAME AS PUB        03150000
.*                             INDEX) OF DEVICE FOR WHICH USAGE         03200000
.*                             COUNTER AND OWNERSHIP IS TO BE SET       03250000
.*                                                                      03300000
.*                      PART =                                          03350000
.*                             NAME OF A 2-BYTE FIELD OR REGISTER       03400000
.*                             CONTAINING THE PARTITION ID TO WHICH     03450000
.*                             THE PHYSICAL UNIT BELONGS (MANDANTORY).  03500000
.*                                                                      03550000
.*  OUTPUT(ASSEMBLER)= NECESSARY INSTRUCTIONS TO LOAD                   03600000
.*                     REGISTER 0,1 AND 15                              03650000
.*                     AND TO GENERATE SVC 107                          03700000
.*                                                                      03750000
.*                     FUNCTIONCODES USED FOR DEVUSE  (HEX)             03800000
.*                                      44                              03850000
.*                                                                      03900000
.*  MACROS GENERATING SVC 107 :                                         03950000
.*         GETFLD,   MODFLD,   TREADY,   TSTOP,   RLOCK,                04000000
.*         SRCHFLD,  DEVUSE,   DEVREL,   ENTER,   LEAVE,                04050000
.*         VIOPOINT                                                     04100000
.*                                                                      04150000
.*   ====> CHECK SUPERVISOR GENERATION MACRO SGTINF FOR HIGHEST         04200000
.*   ====> USED FUNCTION CODE WHEN EXTENDING DEVUSE                     04250000
.*                                                                      04300000
.*  OUTPUT(EXECUTION)=  RETURN CODE IN REGISTER 15 :                    04350000
.*                              0 REQUEST COMPLETE                      04400000
.*                              8 NON DASD DEVICE ALREADY OWNED         04450000
.*                                BY OTHER PARTITION                    04500000
.*                                                                      04550000
.*  EXIT NORMAL      =  COMPILER :                                      04600000
.*                      MACRO EXPANSION                                 04650000
.*                      EXECUTION:                                      04700000
.*                      CONTROL RETURNED TO USER                        04750000
.*                                                                      04800000
.*  EXIT ERROR       =  COMPILER :                                      04850000
.*                      MNOTES INDICATING THE ERROR                     04900000
.*                      EXECUTION:                                      04950000
.*                      RETURN CODES (SEE OUTPUT)                       05000000
.*                                                                      05050000
.*                                                                      05100000
.*  EXTERNAL REFEREN.=  NONE                                            05150000
.*  ROUTINES         =  SVC 107 (SUPERVISOR GENERATION MACRO SGTINF)    05200000
.*  DATA AREAS       =  NONE                                            05250000
.*  CONTROL BLOCKS   =  NONE                                            05300000
.*  TABLES           =  NONE                                            05350000
.*  MACROS           =  NONE                                            05400000
.*  CHANGE ACTIVITIES=  NEW MACRO   FIRST RELEASE 2.1                   05450000
.*  MODIFIED REGISTER=  REGISTER 0,1 AND 15                             05500000
.*                                                                      05550000
.*  A000000-999999                                             @D14BDWK 05600000
.*                                                                      05650000
.** END OF SPECICATIONS *********************************************** 05700000
.*                                                                      05750000
         AIF   (T'&PU EQ 'O').NOTE01          PUB INDEX REQUIRED        05800000
         AIF   (T'&PART EQ 'O').NOTE02        PART ID REQUIRED          05850000
         AIF   ('&PART' EQ '(0)').NOTE03      MUST NOT BE REGISTER 0    05900000
&FC      SETA  68                             FC FOR DEVUSE             05950000
&NAME    DC    0H'0'                                                    06000000
         AIF   ('&PU' EQ '(0)').SETPA         PUB INDEX ALREADY LOADED  06050000
         AIF   ('&PU'(1,1) EQ '(').PUREG      REGISTER NOTATION         06100000
         LH    0,&PU                          LOAD PUB INDEX            06150000
         AGO   .SETPA                                                   06200000
.PUREG   ANOP                                                           06250000
         LR    0,&PU(1)                       LOAD PUB INDEX            06300000
.SETPA   ANOP                                                           06350000
         AIF   ('&PART' EQ '(1)').GENFC       PART ID ALREADY LOADED    06400000
         AIF   ('&PART'(1,1) EQ '(').PAREG    REGISTER NOTATION         06450000
         LH    1,&PART                        LOAD PARTITION ID         06500000
         AGO   .GENFC                                                   06550000
.PAREG   ANOP                                                           06600000
         LR    1,&PART(1)                     LOAD PARTITION ID         06650000
.GENFC   ANOP                                                           06700000
         LA    15,&FC                         SET FUNCTION CODE         06750000
         SVC   107                            HANDLE REQUEST            06800000
         MEXIT                                                          06850000
.*                                                                      06900000
.*--------------------------------------------------------------------- 06950000
.*       MNOTES                                                         07000000
.*--------------------------------------------------------------------- 07050000
.*                                                                      07100000
.NOTE01  MNOTE 8,'PU OPERAND REQUIRED FOR DEVUSE MACRO'                 07150000
         MEXIT                                                          07200000
.NOTE02  MNOTE 8,'PART OPERAND REQUIRED FOR DEVUSE MACRO'               07250000
         MEXIT                                                          07300000
.NOTE03  MNOTE 8,'REGISTER 0 MUST NOT BE USED FOR PART OPERAND'         07350000
         MEND                                                           07400000
*---------------------------------------------------------------------- 07450000
*---------------------------------------------------------------------- 07500000
*        PL/S PART OF MACRO FOLLOWS                                     07550000
*---------------------------------------------------------------------- 07600000
*---------------------------------------------------------------------- 07650000
*                                      END OF PL/S COMMENT           */ 07700000
*%DEVUSPLS :  ;                                                         07750000
*%DEVUSE: MACRO    KEYS(PU,PART);                                       07800000
* /*-----------------------------------------------------------------*/ 07850000
* /*     LIST MACRO INVOCATION IN SOURCE                             */ 07900000
* /*-----------------------------------------------------------------*/ 07950000
*    ANS ('/* '||MACLABEL||' '||MACNAME||' '||MACLIST||' '||MACKEYS||   08000000
*         '*/') COL(MACLMAR);                                           08050000
* ANS ('/*                                                  */')        08100000
* COL(MACLMAR);                                                         08150000
* ANS ('/*      SUPERVISOR - DEVUSE - 5686-007-06-C44       */')        08200000
* COL(MACLMAR);                                                         08250000
* ANS ('/*                                                  */')        08300000
* COL(MACLMAR);                                                         08350000
* /*-----------------------------------------------------------------*/ 08400000
* /*     CHECK SPECIFIED OPERANDS                                    */ 08450000
* /*-----------------------------------------------------------------*/ 08500000
*    IF NUMBER(PU) = 0  THEN           /* PU OPERAND REQUIRED        */ 08550000
*       GO TO MERR01;                  /*                            */ 08600000
*    IF NUMBER(PART) = 0  THEN         /* PART OPERAND REQUIRED      */ 08650000
*       GO TO MERR02;                  /*                            */ 08700000
*    IF PART(1) = '0' THEN             /* MUST NOT BE REGISTER 0     */ 08750000
*       GO TO MERR03;                  /*                            */ 08800000
* /*-----------------------------------------------------------------*/ 08850000
* /*     DECLARE NECESSARY REGISTER                                  */ 08900000
* /*-----------------------------------------------------------------*/ 08950000
* IF PU(1) ¬= '0' THEN                 /* PU OPERAND NOT REGISTER 0  */ 09000000
*    DO;                               /* DECLARE REGISTER 0         */ 09050000
*    ANS ('DCL REG0'||MACINDEX||' REG(0) PTR(31);')RESCAN SKIP COL(10); 09100000
*    ANS ('/* SPECIFY REGISTER 0        */') COL(41);                   09150000
*    END;                              /*                            */ 09200000
* ELSE;                                /*                            */ 09250000
* IF PART(1) ¬= '1' THEN               /* PART OPERAND NOT REGISTER 1*/ 09300000
*    DO;                               /* DECLARE REGISTER 1         */ 09350000
*    ANS ('DCL REG1'||MACINDEX||' REG(1) PTR(31);')RESCAN SKIP COL(10); 09400000
*    ANS ('/* SPECIFY REGISTER 1        */') COL(41);                   09450000
*    END;                              /*                            */ 09500000
* ELSE;                                /*                            */ 09550000
* ANS ('DCL REGF'||MACINDEX||' REG(15) PTR(31);')RESCAN SKIP COL(10);   09600000
* ANS ('/* SPECIFY REGISTER 15       */') COL(41);                      09650000
* IF PU(1) ¬= '0' THEN                 /* PU OPERAND NOT REGISTER 0  */ 09700000
*    ANS ('RFY (REG0'||MACINDEX||') RSTD;')RESCAN SKIP COL(10);         09750000
* IF PART(1) ¬= '1' THEN               /* PART OPER. NOT REGISTER 1  */ 09800000
*    ANS ('RFY (REG1'||MACINDEX||') RSTD;')RESCAN SKIP COL(10);         09850000
* ANS ('RFY (REGF'||MACINDEX||') RSTD;')RESCAN SKIP COL(10);            09900000
* IF MACLABEL ¬= '' THEN               /* LABEL SPECIFIED            */ 09950000
* ANS (''||MACLABEL||';') COL(MACLMAR);                                 10000000
* /*-----------------------------------------------------------------*/ 10050000
* /*     SET PU OPERAND                                              */ 10100000
* /*-----------------------------------------------------------------*/ 10150000
* IF PU(1) ¬= '0' THEN                 /* PU OPERAND NOT REGISTER 0  */ 10200000
*    DO;                               /*                            */ 10250000
*    ANS ('REG0'||MACINDEX||' = '||PU(1)||';')RESCAN SKIP COL(10);      10300000
*    ANS ('/* SET UNIT NUMBER           */') COL(41);                   10350000
*    END;                              /*                            */ 10400000
* ELSE;                                /*                            */ 10450000
* /*-----------------------------------------------------------------*/ 10500000
* /*     SET PART OPERAND                                            */ 10550000
* /*-----------------------------------------------------------------*/ 10600000
* IF PART(1) ¬= '1' THEN               /* PART OPER. NOT REGISTER 1  */ 10650000
*    DO;                               /*                            */ 10700000
*    ANS ('REG1'||MACINDEX||' = '||PART(1)||';')RESCAN SKIP COL(10);    10750000
*    ANS ('/* SET PARTITION ID          */') COL(41);                   10800000
*    END;                              /*                            */ 10850000
* ELSE;                                /*                            */ 10900000
* /*-----------------------------------------------------------------*/ 10950000
* /*     SET FUNCTION CODE AND SVC                                   */ 11000000
* /*-----------------------------------------------------------------*/ 11050000
* ANS ('REGF'||MACINDEX||' = 68 ;')RESCAN SKIP COL(10);                 11100000
* ANS ('/* INDICATE FUNCTION         */') COL(41);                      11150000
* ANS ('SVC(107);') SKIP COL(10);                                       11200000
* ANS ('/*                           */') COL(41);                      11250000
* IF PU(1) ¬= '0' THEN                 /* PU OPERAND NOT REGISTER 0  */ 11300000
*    ANS ('RFY (REG0'||MACINDEX||')UNRSTD;')RESCAN SKIP COL(10);        11350000
* IF PART(1) ¬= '1' THEN               /* PART OPER. NOT REGISTER 1  */ 11400000
*    ANS ('RFY (REG1'||MACINDEX||')UNRSTD;')RESCAN SKIP COL(10);        11450000
* ANS ('RFY (REGF'||MACINDEX||')UNRSTD;')RESCAN SKIP COL(10);           11500000
* RETURN CODE(0);                      /* EXIT                       */ 11550000
* /*-----------------------------------------------------------------*/ 11600000
* /*     MACRO NOTES                                                 */ 11650000
* /*-----------------------------------------------------------------*/ 11700000
* MERR01 :                             /*                            */ 11750000
* ANS MSG('PU OPERAND REQUIRED FOR DEVUSE MACRO ;');                    11800000
* ANS ('/* PU OPERAND REQUIRED FOR DEVUSE MACRO */') COL(MACLMAR);      11850000
* RETURN CODE(8);                      /*                            */ 11900000
* MERR02 :                             /*                            */ 11950000
* ANS MSG('PART OPERAND REQUIRED FOR DEVUSE MACRO ;');                  12000000
* ANS ('/* PART OPERAND REQUIRED FOR DEVUSE MACRO */') COL(MACLMAR);    12050000
* RETURN CODE(8);                      /*                            */ 12100000
* MERR03 :                             /*                            */ 12150000
* ANS MSG('REGISTER 0 MUST NOT BE USED FOR PART OPERAND ;');            12200000
* ANS ('/* REGISTER 0 MUST NOT BE USED FOR PART OPERAND */')            12250000
* COL(MACLMAR);                                                         12300000
* RETURN CODE(8);                      /*                            */ 12350000
*%END ;                                /*                            */ 12400000
