         MACRO                                                          00001000
&NAME    DISPMAC &FUNC=,                                               *00002000
               &SFUNC=,                                        @D66ODOW*00003000
               &ERREXIT=,                                      @D66ODOW*00003000
               &INP1=,                                                 *00003000
               &INP2=,                                                 *00004000
               &INP3=,                                                 *00005000
               &INP4=,                                                 *00006000
               &WR1=                                                    00007000
         GBLB  &IJBSGEN                                        @D66ODOW 00008000
         GBLB  &IJBDSPQ           =1, IF EQUATE CHANERATED     @D61RDIS 00008000
         GBLC  &RTIB                                           @D66ODOW 00008000
         GBLC  &RPCB                                           @D66ODOW 00008000
         LCLC  &INDEX                                          @D61RDIS 00009000
         LCLC  &INDEX1                                         @D61RDIS 00010000
.*       IBM DISK OPERATING SYSTEM                            *         00011000
         SPACE 1                                                        00012000
***************************************************************         00013000
*        SUPERVISOR - DISPMAC - 5686-CF7-06                   *         00014000
         AGO   .ZZZ                                           *         00015000
*        LICENSED MATERIALS - PROPERTY OF IBM                 *         00016000
*        "RESTRICTED MATERIALS OF IBM"                        *         00017000
*        5686-CF7                                             *         00018000
*        (C) COPYRIGHT IBM CORP. 1994, 2004                   *         00018000
***************************************************************         00013000
.ZZZ     ANOP                                                 *         00020000
.* /* START OF SPECIFICATIONS                                           00021000
.*01  MODULE TYPE      = SUPERVISOR GENERATION MACRO                    00022000
.*01  DESCRIPTIVE NAME = PROVIDES ACCESS TO DISPATCHER SERVICES         00023000
.*01  NOTES            = CHANGE ACTIVITY                                00024000
.*    TURBO DISPATCHER                                         @D61RDIS 00025000
.*    SAVE STATUS INTO SECOND SAVE AREA                        @DY43697 00026000
.*    VSE/ESA 2.2 ENHANCEMENTS                                 @D61TDIS 00027000
.*    MORE THAN 255 TASKS AND 31 TASKS/PARTITION               @D66ODOW 00027000
.*    NEW FUNCTION CODE: DELAY INTERRUPTS                      @D68..IS 00027000
.*    NEW FUNCTION CODE: DELAY DISPATCHER CYCLE                @D68OMIS 00027000
.*    A000000-999999                                                    00028000
.*02  PROCESSOR        = ASSEMBLER                                      00029000
.*END OF SPECIFICATIONS       *******************************/          00030000
         AIF   (T'&FUNC EQ 'O').FUNCERR                        @D61RDIS 00031000
         AIF   (T'&NAME EQ 'O').NONAME                         @D61RDIS 00031000
&NAME    DS    0H                                              @D66ODOW         
.NONAME  ANOP                                                  @D66ODOW         
         AIF   ('&FUNC' EQ 'DISP').DISP                        @D61RDIS 00032000
         AIF   ('&FUNC' EQ 'RPOST').RPOST                      @D61RDIS 00033000
         AIF   ('&FUNC' EQ 'RPOST3').RPOST3                    @D61RDIS 00034000
         AIF   ('&FUNC' EQ 'RPOSTX').RPOSTX                    @D61RDIS 00035000
         AIF   ('&FUNC' EQ 'UNPOST').UNPOST                    @D61RDIS 00036000
         AIF   ('&FUNC' EQ 'REDISP').REDISP                    @D61RDIS 00037000
         AIF   ('&FUNC' EQ 'VSMDELAY').VSMDELA                 @D61RDIS 00038000
         AIF   ('&FUNC' EQ 'SETLT').SETLT                      @D61RDIS 00039000
         AIF   ('&FUNC' EQ 'SETLCALL').SETLCAL                 @D61RDIS 00040000
         AIF   ('&FUNC' EQ 'ALLBND').ALLBND                    @D61RDIS 00041000
         AIF   ('&FUNC' EQ 'DISPICS').DISPICS                  @D61RDIS 00042000
         AIF   ('&FUNC' EQ 'DISPICR').DISPICR                  @D61RDIS 00043000
         AIF   ('&FUNC' EQ 'PFQUERY').PFQUERY                  @D61RDIS 00044000
         AIF   ('&FUNC' EQ 'PFUPD').PFUPD                      @D61RDIS 00045000
         AIF   ('&FUNC' EQ 'INIT').INIT                        @D61RDIS 00046000
         AIF   ('&FUNC' EQ 'LOADDYN').LOADDYN                  @D61RDIS 00047000
         AIF   ('&FUNC' EQ 'DEALLOC').DEALLOC                  @D61RDIS 00048000
         AIF   ('&FUNC' EQ 'ALLOC').ALLOC                      @D61RDIS 00049000
         AIF   ('&FUNC' EQ 'SETDEF').SETDEF                    @D61RDIS 00050000
         AIF   ('&FUNC' EQ 'ENTSVC').ENTSVC                    @D61RDIS 00051000
         AIF   ('&FUNC' EQ 'ENTIO').ENTIO                      @D61RDIS 00052000
         AIF   ('&FUNC' EQ 'ENTEXT').ENTEXT                    @D61RDIS 00053000
         AIF   ('&FUNC' EQ 'UPDJA').UPDJA                      @D61RDIS 00054000
         AIF   ('&FUNC' EQ 'CHKINT').FUNCERR                   @D61RDIS 00055000
         AIF   ('&FUNC' EQ 'CHKINTD').FUNCERR                  @D61RDIS 00056000
         AIF   ('&FUNC' EQ 'ATTACH').ATTACH                    @D61RDIS 00057000
         AIF   ('&FUNC' EQ 'DETACH').DETACH                    @D61RDIS 00058000
         AIF   ('&FUNC' EQ 'CHAP').CHAP                        @D61RDIS 00059000
         AIF   ('&FUNC' EQ 'EOT').EOT                          @D61RDIS 00060000
         AIF   ('&FUNC' EQ 'TERML').TERML                      @D61RDIS 00061000
         AIF   ('&FUNC' EQ 'TERMH').TERMH                      @D61RDIS 00062000
         AIF   ('&FUNC' EQ 'SVC57').SVC57                      @D61RDIS 00063000
         AIF   ('&FUNC' EQ 'SVC133').SVC133                    @D61RDIS 00064000
         AIF   ('&FUNC' EQ 'ATTSTASK').ATTSTAS                 @D61RDIS 00065000
         AIF   ('&FUNC' EQ 'TDINFO').TDINFO                    @D61RDIS 00066000
         AIF   ('&FUNC' EQ 'NPQUERY').NPQUERY                  @D61RDIS 00067000
         AIF   ('&FUNC' EQ 'PTLB').PTLB                        @D61RDIS 00068000
         AIF   ('&FUNC' EQ 'PALB').PALB                        @D61RDIS 00069000
         AIF   ('&FUNC' EQ 'IPL').IPL                          @D61RDIS 00070000
         AIF   ('&FUNC' EQ 'CNCLEXIT').CNCLEXI                 @D61RDIS 00071000
         AIF   ('&FUNC' EQ 'DISPSTOP').DISPSTO                 @D61RDIS 00072000
         AIF   ('&FUNC' EQ 'GENENT').GENENT                    @D61RDIS 00073000
         AIF   ('&FUNC' EQ 'GETSAVAR').GETSAVR                 @D61RDIS 00074000
         AIF   ('&FUNC' EQ 'UPDCR0').UPDCR0                    @D61RDIS 00075000
         AIF   ('&FUNC' EQ 'SIGPTSK').SIGPTS                   @KXANN16 00076000
         AIF   ('&FUNC' EQ 'SETREADY').SETREAD                 @KXANN16 00077000
         AIF   ('&FUNC' EQ 'DEBGON').DEBGON                    @KXANN16 00078000
         AIF   ('&FUNC' EQ 'DEBGOFF').DEBGOFF                  @KXANN16 00079000
         AIF   ('&FUNC' EQ 'TPI').TPI                          @KXANN17 00080000
         AIF   ('&FUNC' EQ 'SDEXIT').SDEXIT                    @DY43697 00081000
         AIF   ('&FUNC' EQ 'PCENTRY').PCENTRY                  @D64XDIS 00082000
         AIF   ('&FUNC' EQ 'PCRETURN').PCRETUR                 @D64XDIS 00083000
         AIF   ('&FUNC' EQ 'CHAPMVS').CHAPMVS                  @D64ADIS 00084000
         AIF   ('&FUNC' EQ 'PARTST').PARTST                    @D61TDIS 00085000
         AIF   ('&FUNC' EQ 'SVC150').SVC150                    @D64ADIS 00086000
         AIF   ('&FUNC' EQ 'SCHEDULE').SCHED                   @D64ADIS 00087000
         AIF   ('&FUNC' EQ 'MVSSVC').MVSSVC                    @D64ADIS 00088000
         AIF   ('&FUNC' EQ 'FREELOCK').FREELOC                 @D64ADIS 00089000
         AIF   ('&FUNC' EQ 'POST82').POST82                    @DYXXXIS 00089500
         AIF   ('&FUNC' EQ 'TIB').NEXTTIB                      @D66ODOW 00089500
         AIF   ('&FUNC' EQ 'DELINT').FUNCERR                   @D68OMIS 00089500
         AIF   ('&FUNC' EQ 'DSPDELAY').DSPDELA                 @D68OMIS 00089500
.FUNCERR ANOP                                                  @D61RDIS 00090000
         MNOTE 5,'FUNC SPECIFICATION OMITTED OR INVALID'       @D61RDIS 00091000
         MEXIT                                                 @D61RDIS 00092000
.REGERR  ANOP                                                  @D61RDIS 00093000
         MNOTE 5,'NOT ENOUGH WORK REGISTERS SPECIFIED'         @D61RDIS 00094000
         MEXIT                                                 @D61RDIS 00095000
.TYPERR  ANOP                                                  @D61RDIS 00096000
         MNOTE 5,'TYPE SPECIFICATION OMITTED OR INVALID'       @D61RDIS 00097000
         MEXIT                                                 @D61RDIS 00098000
.FAILERR ANOP                                                  @D61RDIS 00099000
         MNOTE 5,'FAIL SPECIFICATION NOT ALLOWED'              @D61RDIS 00100000
         MEXIT                                                 @D61RDIS 00101000
.TIBERR  ANOP                                                  @D66ODOW 00099000
         MNOTE 5,'SFUNC SPECIFICATION INCORRECT'               @D66ODOW 00100000
         MEXIT                                                 @D61RDIS 00101000
.* -----------------------------------------------------------          00102000
.*       - SET FUNCTION CODES                                           00103000
.* -----------------------------------------------------------          00104000
.* -----------------------------------------------------------          00105000
.SVC57   ANOP                                                           00106000
* --------------------------------------------------------------        00107000
*          - PROCESS PRTY ROUTINE REQUEST                               00108000
* --------------------------------------------------------------        00109000
         STM   R0,RF,TDSAVE       SAVE REGISTERS               @D61RDIS 00110000
         LA    RF,0               GET FUNCTION CODE            @D61RDIS 00111000
         AGO   .COMMON                                         @D61RDIS 00112000
.* -----------------------------------------------------------          00113000
.* -----------------------------------------------------------          00114000
.LOADDYN ANOP                                                           00115000
* --------------------------------------------------------------        00116000
*          - PROCESS LOAD REQUEST OF DYNAMIC CLASS TABLE                00117000
* --------------------------------------------------------------        00118000
         STM   R0,RF,TDSAVE       SAVE REGISTERS               @D61RDIS 00119000
         LA    RF,4               GET FUNCTION CODE            @D61RDIS 00120000
         AGO   .COMMON                                         @D61RDIS 00121000
.* -----------------------------------------------------------          00122000
.* -----------------------------------------------------------          00123000
.ALLOC   ANOP                                                           00124000
         AIF   (T'&INP1 EQ 'O').REGERR                                  00125000
* --------------------------------------------------------------        00126000
*          - PROCESS ALLOCATION OF DYNAMIC PARTITION                    00127000
*            INPUT  FOR FUNCTION: R1 - PCB ADDRESS                      00128000
* --------------------------------------------------------------        00129000
         STM   R0,RF,TDSAVE       SAVE REGISTERS               @D61RDIS 00130000
         LA    RF,16              GET FUNCTION CODE            @D61RDIS 00131000
         AGO   .COMMON                                         @D61RDIS 00132000
.* -----------------------------------------------------------          00133000
.* -----------------------------------------------------------          00134000
.DEALLOC ANOP                                                           00135000
         AIF   (T'&INP1 EQ 'O').REGERR                                  00136000
* --------------------------------------------------------------        00137000
*          - PROCESS DEALLOCATION OF DYNAMIC PARTITION                  00138000
*            INPUT  FOR FUNCTION: R5 - PCB ADDRESS                      00139000
* --------------------------------------------------------------        00140000
         STM   R0,RF,TDSAVE       SAVE REGISTERS               @D61RDIS 00141000
         LA    RF,20              GET FUNCTION CODE            @D61RDIS 00142000
         AGO   .COMMON                                         @D61RDIS 00143000
.* -----------------------------------------------------------          00144000
.* -----------------------------------------------------------          00145000
.DISP    ANOP                                                           00146000
         LA    RF,24              GET FUNCTION CODE            @D61RDIS 00147000
* --------------------------------------------------------------        00148000
*          - PROCESS TASK SELECTION                                     00149000
*            OUTPUT FOR FUNCTION: RF - FUNCTION CODE FOR                00150000
*                                      FOLLOW-ON PROCESS                00151000
* --------------------------------------------------------------        00152000
         AGO   .COMMON                                         @D61RDIS 00153000
.* -----------------------------------------------------------          00154000
.* -----------------------------------------------------------          00155000
.RPOST   ANOP                                                           00156000
         AIF   (T'&INP1 EQ 'O').REGERR                                  00157000
         STM   R0,RF,TDSAVE       SAVE REGISTERS               @D61RDIS 00158000
         LA    R8,0(,RE)          GET TIB ADDRESS              @D61RDIS 00159000
         LA    RF,28              GET FUNCTION CODE            @D61RDIS 00160000
* --------------------------------------------------------------        00161000
*          - READY TASK                                                 00162000
*            INPUT  FOR FUNCTION: RE - TIB ADDRESS                      00163000
* --------------------------------------------------------------        00164000
         AGO   .COMMON                                         @D61RDIS 00165000
.* -----------------------------------------------------------          00166000
.* -----------------------------------------------------------          00167000
.UNPOST  ANOP                                                           00168000
         STM   R0,RF,TDSAVE       SAVE REGISTERS               @D61RDIS 00169000
         LA    R8,0(,RE)          GET TIB ADDRESS              @D61RDIS 00170000
         LA    RF,32              GET FUNCTION CODE            @D61RDIS 00171000
* --------------------------------------------------------------        00172000
*          - PROCESS UNPOST FUNCTION                                    00173000
*            INPUT FOR FUNCTION: R8 - TIB ADDRESS                       00174000
* --------------------------------------------------------------        00175000
         AGO   .COMMON                                         @D61RDIS 00176000
.* -----------------------------------------------------------          00177000
.* -----------------------------------------------------------          00178000
.VSMDELA ANOP                                                           00179000
         LA    RF,36              GET FUNCTION CODE            @D61RDIS 00180000
* --------------------------------------------------------------        00181000
*          - VSAM CLEAN UP PROCESS                                      00182000
*            RETURN: FUNCTION WILL NOT RETURN                           00183000
* --------------------------------------------------------------        00184000
         AGO   .COMMON                                         @D61RDIS 00185000
.* -----------------------------------------------------------          00186000
.* -----------------------------------------------------------          00187000
.EOT     ANOP                                                           00188000
* --------------------------------------------------------------        00189000
*          - EOT HIGH PRIORITY REQUEST                                  00190000
*            INPUT FOR FUNCTION: NONE                                   00191000
* --------------------------------------------------------------        00192000
         STM   R0,RF,TDSAVE       SAVE REGISTERS               @D61RDIS 00193000
         LA    RF,40              GET FUNCTION CODE            @D61RDIS 00194000
         AGO   .COMMON                                         @D61RDIS 00195000
.* -----------------------------------------------------------          00196000
.* -----------------------------------------------------------          00197000
.SETLT   ANOP                                                           00198000
         STM   R0,RF,TDSAVE       SAVE REGISTERS               @D61RDIS 00199000
         LA    RF,44              GET FUNCTION CODE            @D61RDIS 00200000
* --------------------------------------------------------------        00201000
*          - SPECIAL LTA PROCESS                                        00202000
* --------------------------------------------------------------        00203000
         AGO   .COMMON                                         @D61RDIS 00204000
.* -----------------------------------------------------------          00205000
.* -----------------------------------------------------------          00206000
.TERML   ANOP                                                           00207000
* --------------------------------------------------------------        00208000
*          - SET DUMP ROUTINE OWNER TO TASK'S ORIGINAL PRIORITY         00209000
*            INPUT FOR FUNCTION: NONE                                   00210000
* --------------------------------------------------------------        00211000
         STM   R0,RF,TDSAVE       SAVE REGISTERS               @D61RDIS 00212000
         LA    R0,0               INDICATE REQUEST TYPE        @D61RDIS 00213000
         LA    RF,48              GET FUNCTION CODE            @D61RDIS 00214000
         AGO   .COMMON                                         @D61RDIS 00215000
.* -----------------------------------------------------------          00216000
.* -----------------------------------------------------------          00217000
.TERMH   ANOP                                                           00218000
* --------------------------------------------------------------        00219000
*          - SET DUMP ROUTINE OWNER TO HIGH PRIORITY                    00220000
*            INPUT FOR FUNCTION: NONE                                   00221000
* --------------------------------------------------------------        00222000
         STM   R0,RF,TDSAVE       SAVE REGISTERS               @D61RDIS 00223000
         LA    R0,1               INDICATE REQUEST TYPE        @D61RDIS 00224000
         LA    RF,48              GET FUNCTION CODE            @D61RDIS 00225000
         AGO   .COMMON                                         @D61RDIS 00226000
.* -----------------------------------------------------------          00227000
.* -----------------------------------------------------------          00228000
.RPOSTX  AIF   (T'&INP1 EQ 'O').REGERR                                  00229000
         AIF   (T'&INP2 EQ 'O').REGERR                                  00230000
* --------------------------------------------------------------        00231000
*          - POST ALL TASKS WITHIN PARTITION                            00232000
*            INPUT FOR FUNCTION:    - RESOURCE ID                       00233000
*                                R1 - TIBSTATE                          00234000
*                                RE - PCB ADDRESS                       00235000
* --------------------------------------------------------------        00236000
         STM   R0,RF,TDSAVE       SAVE REGISTERS               @D61RDIS 00237000
         SLR   R0,R0              CLEAR FOR INSERT             @D61RDIS 00238000
         IC    R0,RPOSTID         GET RESOURCE ID              @D61RDIS 00239000
         LA    R5,0(,RE)          GET PCB ADDRESS              @D61RDIS 00240000
         LA    RF,52              GET FUNCTION CODE            @D61RDIS 00241000
         AGO   .COMMON                                         @D61RDIS 00242000
.* -----------------------------------------------------------          00243000
.* -----------------------------------------------------------          00244000
.CHAP    ANOP                                                           00245000
* --------------------------------------------------------------        00246000
*          - CHANGE SUBTASK'S PRIORITY                                  00247000
*            INPUT FOR FUNCTION: NONE                                   00248000
* --------------------------------------------------------------        00249000
         STM   R0,RF,TDSAVE       SAVE REGISTERS               @D61RDIS 00250000
         LA    RF,56              GET FUNCTION CODE            @D61RDIS 00251000
         AGO   .COMMON                                         @D61RDIS 00252000
.* -----------------------------------------------------------          00253000
.* -----------------------------------------------------------          00254000
.SETLCAL AIF   (T'&INP1 EQ 'O').REGERR                                  00255000
* --------------------------------------------------------------        00256000
*          - PROCESS DISPATCHER FAST PATH                               00257000
*            INPUT  FOR FUNCTION: R1 - TASK ID                          00258000
*            OUTPUT FOR FUNCTION: R5 - PCB ADDRESS                      00259000
*                                 R8 - TIB ADDRESS                      00260000
*                                 RA - TCB ADDRESS                      00261000
*                                 RB - SAVE AREA ADDRESS                00262000
* --------------------------------------------------------------        00263000
         LA    RF,60              GET FUNCTION CODE            @D61RDIS 00264000
         AGO   .COMMON                                         @D61RDIS 00265000
.* -----------------------------------------------------------          00266000
.* -----------------------------------------------------------          00267000
.DISPICS AIF   (T'&INP1 EQ 'O').REGERR                                  00268000
* --------------------------------------------------------------        00269000
*          - SET ICCF PSEUDO PARTITION                                  00270000
*            INPUT  FOR FUNCTION: R8 - TIB ADDRESS                      00271000
* --------------------------------------------------------------        00272000
         STM   R0,RF,TDSAVE       SAVE REGISTERS               @D61RDIS 00273000
         LA    RF,68              GET FUNCTION CODE            @D61RDIS 00274000
         AGO   .COMMON                                         @D61RDIS 00275000
.* -----------------------------------------------------------          00276000
.* -----------------------------------------------------------          00277000
.DISPICR AIF   (T'&INP1 EQ 'O').REGERR                                  00278000
* --------------------------------------------------------------        00279000
*          - RESET ICCF PSEUDO PARTITION                                00280000
*            INPUT  FOR FUNCTION: R8 - TIB ADDRESS                      00281000
* --------------------------------------------------------------        00282000
         STM   R0,RF,TDSAVE       SAVE REGISTERS               @D61RDIS 00283000
         LA    RF,72              GET FUNCTION CODE            @D61RDIS 00284000
         AGO   .COMMON                                         @D61RDIS 00285000
.* -----------------------------------------------------------          00286000
.* -----------------------------------------------------------          00287000
.ATTACH  AIF   (T'&INP1 EQ 'O').REGERR                                  00288000
         AIF   (T'&INP2 EQ 'O').REGERR                                  00289000
* --------------------------------------------------------------        00290000
*          - MAKE SUBTASK DISPATCHABLE                                  00291000
*            INPUT FOR FUNCTION: R8 - SUBTASK'S TIB ADDRESS             00292000
*                                R9 - PCB ADDRESS                       00293000
* --------------------------------------------------------------        00294000
         STM   R0,RF,TDSAVE       SAVE REGISTERS               @D61RDIS 00295000
         LA    RF,76              GET FUNCTION CODE            @D61RDIS 00296000
         AGO   .COMMON                                         @D61RDIS 00297000
.* -----------------------------------------------------------          00298000
.* -----------------------------------------------------------          00299000
.DETACH  AIF   (T'&INP1 EQ 'O').REGERR                                  00300000
         AIF   (T'&INP2 EQ 'O').REGERR                                  00301000
* --------------------------------------------------------------        00302000
*          - MAKE SUBTASK UNDISPATCHABLE                                00303000
*            INPUT FOR FUNCTION: R5 - PCB ADDRESS                       00304000
*                                R8 - SUBTASK'S TIB ADDRESS             00305000
* --------------------------------------------------------------        00306000
         STM   R0,RF,TDSAVE       SAVE REGISTERS               @D61RDIS 00307000
         LA    RF,80              GET FUNCTION CODE            @D61RDIS 00308000
         AGO   .COMMON                                         @D61RDIS 00309000
.* -----------------------------------------------------------          00310000
.* -----------------------------------------------------------          00311000
.RPOST3  AIF   (T'&INP1 EQ 'O').REGERR                                  00312000
         AIF   (T'&INP2 EQ 'O').REGERR                                  00313000
* --------------------------------------------------------------        00314000
*          - POST HIGH PRIORITY WAITER                                  00315000
*            INPUT FOR FUNCTION: R5 - RESOURCE DESCRIPTOR               00316000
*                                RE - TIB ADDRESS                       00317000
* --------------------------------------------------------------        00318000
         STM   R0,RF,TDSAVE       SAVE REGISTERS               @D61RDIS 00319000
         LA    R8,0(,RE)          GET TIB ADDRESS              @D61RDIS 00320000
         LA    RF,92              GET FUNCTION CODE            @D61RDIS 00321000
         AGO   .COMMON                                         @D61RDIS 00322000
.* -----------------------------------------------------------          00323000
.* -----------------------------------------------------------          00324000
.PALB    ANOP                                                           00325000
* --------------------------------------------------------------        00326000
*          - PROCESS PALB                                               00327000
* --------------------------------------------------------------        00328000
         STM   R0,RF,TDSAVE       SAVE REGISTERS               @D61RDIS 00329000
         LA    RF,96              SET FUNCTION CODE            @D61RDIS 00330000
         AGO   .COMMONE                                        @D61RDIS 00331000
.* -----------------------------------------------------------          00332000
.* -----------------------------------------------------------          00333000
.INIT    ANOP                                                           00334000
* --------------------------------------------------------------        00335000
*          - CONTROL BLOCK INITIALIZATION                               00336000
* --------------------------------------------------------------        00337000
         STM   R0,RF,TDSAVE       SAVE REGISTERS               @D61RDIS 00338000
         LA    RF,104             GET FUNCTION CODE            @D61RDIS 00339000
         AGO   .COMMON                                         @D61RDIS 00340000
.* -----------------------------------------------------------          00341000
.* -----------------------------------------------------------          00342000
.ALLBND  ANOP                                                           00343000
* --------------------------------------------------------------        00344000
*          - ALLBOUND PROCESS                                           00345000
*            RETURN: FUNCTION WILL NOT RETURN                           00346000
* --------------------------------------------------------------        00347000
         LA    RF,108             GET FUNCTION CODE            @D61RDIS 00348000
         AGO   .COMMON                                         @D61RDIS 00349000
.* -----------------------------------------------------------          00350000
.* -----------------------------------------------------------          00351000