*/* ERROR BLOCK MAPPING MACRO FOR DOS/VSE                    @D14CDKY*/ 00001004
*% GOTO ERB001;                    /*BY PASS BAL EXPANSION   @D35YDDK   00002004
         MACRO                                                          00003004
&NAME    ERBLOC &CSECT=NO,&DEVICE=NO,&IJBXDB=NO                         00004004
.*       IBM DISK OPERATING SYSTEM                            *@D378DDK 00005004
.*       SUPERVISOR - ERBLOC - 5686-066-06-35C                *@D63HDJK 00006004
         AGO   .ZZZ                                           *@D378DDK 00007004
*        LICENSED MATERIALS - PROPERTY OF IBM                 *@D31UDMZ 00008004
*        THIS MACRO IS "RESTRICTED MATERIALS OF IBM"          *@D31UDMZ 00009004
*        5686-066 (C) COPYRIGHT IBM CORP. 1979, 2001          *@D66CDAP 00010005
*        SEE COPYRIGHT INSTRUCTIONS                           *@D31UDMZ 00011004
.ZZZ     ANOP                                                 *@D378DDK 00012004
         AIF  ('&CSECT' NE 'YES').NCSEC10                               00013004
         AIF  ('&DEVICE' EQ 'NO').YCSEC10                               00014004
         MNOTE 4,'CONFLICTING KEYWORDS, CSECT ASSUMED'                  00015004
.YCSEC10 ANOP                                                           00016004
**************************************************************          00017004
*                                                            *          00018004
*        SUPERVISOR --> ERP COMMUNICATION BLOCK              *          00019004
*                                                            *          00020004
**************************************************************          00021004
         SPACE 1                                                        00022004
         DC    C' ERROR BLOCK '   EYE-CATCHER                           00023004
ERBLOC   DC    0F'0'              ERROR BLOCK                  @D359DPS 00024004
SVC5NM   DC    C'$$ABERR'         A-TRANSIENT PHASE NAME                00025004
FTCHNM   DC    C'A'               PHASE TO BE FETCHED                   00026004
ARETRY   DC    A(INITRG)          RETRY EXIT FROM ERP          @D61CDAP 00027004
YRETRY   EQU   ARETRY                                          @D61CDAP 00028004
AIGNORE  DC    A(IGNORE)          IGNORE EXIT FROM ERP         @D61CDAP 00029004
YIGNORE  EQU   AIGNORE                                         @D61CDAP 00030004
ACANCEL  DC    A(ERR1A)           CANCEL EXIT FROM ERP         @D35EDPS 00031004
YERPEXIT DC    A(ERPEXIT)         RET. ADDR. FROM SUPRET MACRO @D35EDPS 00032004
         SPACE                                                          00033004
* * * * * * * * * * * * * * * * * * * * * * * * * * * * * * * * * * * * 00034004
*                                                                     * 00035004
*        ERROR QUEUE ENTRY.                                           * 00036004
*                                                                     * 00037004
* * * * * * * * * * * * * * * * * * * * * * * * * * * * * * * * * * * * 00038004
         SPACE 1                                                        00039004
ERQ1     DS    0CL52              FIRST ERROR QUEUE ENTRY      @D36IDFG 00040004
ERQCSW1  DC    XL8'00'            ERROR CHANNEL STATUS WORD             00041004
ERQPUB1  DC    XL2'00'            ERROR PUB ADDRESS                     00042004
ERQFLG1  DC    X'00'              ERROR FLAGS FOR ERP USE ONLY          00043004
*              X'80'              NO RECORD FOUND ON DASD               00044004
*              X'40'              OPERATOR INTERVENTION REQUIRED        00045004
*              X'20'              USER WANTS CONTROL BE RETURNED        00046004
*              X'10'              ALLOW IGNORE                          00047004
*              X'08'              I/O RETRY WAS SUCCESSFUL              00048004
*              X'04'              ALLOW RETRY                           00049004
*              X'02'              RECORDING ONLY REQUEST       @D21IDAP 00050004
*              X'01'              ERROR ENTRY IS ACTIVE                 00051004
ERQMSG1  DC    X'00'              ERROR MESSAGE CODE                    00052004
ERQRECV  EQU   X'E2'              ERROR IS RECOVERABLE         @D61CDJK 00053004
ERQRECD  EQU   X'AE'              ALTERNATE ENTRY INDICATION   @D61CDJK 00054004
ERQTYPE1 EQU   ERQMSG1            ALTERNATE TYPE INDICATION             00055004
ERQSEK1  DC    XL4'00'            SEEK ADDRESS                          00056004
ERQATID  EQU   ERQSEK1            ALTERNATE TYPE INDICATION             00057004
ERQCCB1  DC    XL4'00'            ERROR CCB ADDRESS                     00058004
ERQSNS1  DC    XL32'00'           SENSE BYTES                  @D36ZDFG 00059004
ERQNAME1 EQU   ERQSNS1            ALTERNATE NAME FIELD                  00060004
ERQTFX1  EQU   ERQNAME1+2         INDICATOR FOR TFIXED SD RECORD        00061004
ERQPUB21 DC    XL4'00'            PUB2 POINTER                 @D14CDFG 00062004
ERQCAW1  DC    XL4'00'            CAW PREPARED FROM ERP        @D21CDOW 00063004
ERQPRIN1 DC    XL8'00'            PROCESSING INFORMATION       @D51GDAP 00064004
         ORG   ERQPRIN1                                        @D21IDAP 00065004
ERQLSNS1 DC    XL1'00'            NO. OF SENSE BYTES RECEIVED  @D21IDAP 00066004
ERQPRFL1 DC    XL1'00'            PROCESSING FLAGS             @D21IDAP 00067004
ERQPSOV  EQU   X'80'              MORE THAN ONE UNIT CHECK     @D21IDAP 00068004
ERQPVT   EQU   X'40'              PATH VERIFICATION REQUIRED   @D51GDAP 00069004
*        EQU   X'20'              RESERVED                     @D21IDAP 00070004
ERQV510  EQU   X'10'              EXTENDED ERBLOC VERSION      @D21IDAP 00071004
ERQPMSG  EQU   X'08'              MSG PROCESSING CALL $$ABERRL @D21IDAP 00072004
*        EQU   X'04'              RESERVED                     @D21IDAP 00073004
ERQHIGHL EQU   X'02'              MESSAGE HIGHLIGHTING         @D63HDJK 00074004
*        EQU   X'01'              RESERVED                     @D21IDAP 00075004
ERQERPF1 DC    XL1'00'            ERP COMMUNICATION FLAGS      @D21IDAP 00076004
*        EQU   X'80'              RESERVED                     @D21IDAP 00077004
ERQPOBR  EQU   X'40'              OBR PROCESSING               @D21IDAP 00078004
ERQPMDR  EQU   X'20'              MDR PROCESSING               @D21IDAP 00079004
ERQPSIR  EQU   X'10'              ALERT PROCESSING             @D21IDAP 00080004
ERQPPER  EQU   X'08'              PERMANENT ERROR              @D21IDAP 00081004
ERQPTEM  EQU   X'04'              TEMPORARY ERROR              @D21IDAP 00082004
ERQPT91  EQU   X'02'              TYPE 91 MDR                  @D61SDJK 00083004
ERQNREC  EQU   X'01'              PREVENT RECORDING            @D61SDJK 00084004
ERQPATH1 DC    XL1'00'            PATH FAILURE INFORMATION     @D21IDAP 00085004
ERQCOMM1 DC    XL4'00'            ERP COMMUNICATION AREA       @D21IDAP 00086004
         SPACE 1                                               @D51GDAP 00087004
ERQPUBX1 DC    XL4'00'            PUBX POINTER                 @D21IDAP 00088004
         SPACE 3                                               @D51GDAP 00089004
ERQACPU1 DC    XL1'00'            PROCESSOR ID INFORMATION     @D21BMAP 00090004
ERQRSVD1 DC    XL1'00'            RESERVED                     @D21BMAP 00091004
ERQERR1  DC    XL1'00'            ERROR COUNT                  @D51GDAP 00092004
ERQCCOD1 DC    XL1'00'            COMMAND CODE SET BY ERP      @D51GDAP 00093004
ERQCHQA1 DC    XL4'00'            RESERVED                     @D51GDAP 00094004
ERQFJOB1 DC    CL8'NO NAME '      FAILING JOB NAME             @D51GDAP 00095004
ERQSCSW1 DC    XL4'00'            SUBCHANNEL STATUS WORD 0     @D51GDAP 00096004
ERQESW1  DC    XL4'00'            EXTENDED STATUS WORD 0       @D51GDAP 00097004
ERQECSW1 EQU   ERQESW1            EXTENDED STATUS WORD 0       @D51GDAP 00098004
ERQPUBN1 DC    A(0)               PUB INDEX                    @D51GDAP 00099004
ERQTID1  DC    XL2'00'            TASK ID OF FAILING TASK      @D51GDAP 00100004
ERQRFRL1 DC    H'276'             LENGTH OF RF RECORD AREA     @D61SDJK 00101004
ERQRFRA1 DC    A(ERQRFRC1)        ADDRESS OF RF-RECORD AREA    @D51GDAP 00102004
ERQRFRC1 DC    2XL138'00'         RF RECORD BUILD AREA         @D61SDJK 00103004
ERQE4ID  EQU   ERQRFRC1           EXTENDED SENSE ID INFORMATION@D51GDAP 00104004
         SPACE 2                                               @D37BDFG 00105004
* * * * * * * * * * * * * * * * * * * * * * * * * * * * * * * *@D37BDFG 00106004
*                                                              @D37BDFG 00107004
*        ERROR CHAIN HEADERS FOR SNS, DSK, ERP AND RAS         @D149DFG 00108004
*                                                              @D37BDFG 00109004
* * * * * * * * * * * * * * * * * * * * * * * * * * * * * * * *@D37BDFG 00110004
         SPACE 1                                               @D37BDFG 00111004
ERCHNOFT EQU   *                  OFFSET STRING                @D14BDFG 00112004
         DC    X'00101818202020202828282828282828'             @D14BDFG 00113004
RASERCHN DC    A(0),A(RASTIB)     RAS ERROR CHAIN              @D14BDFG 00114004
ERPERCHN DC    A(0),A(ERPTIB)     TRANSIENT ERP ERROR CHAIN    @D37BDFG 00115004
DSKERCHN DC    A(0),A(DSKTIB)     DISK ERP ERROR CHAIN         @D37BDFG 00116004
SNSERCHN DC    A(0),A(SNSTIB)     SENSE TASK ERROR CHAIN       @D37BDFG 00117004
         SPACE                                                          00118004
SNSSDAID DC    36X'FF'                                         @D35GDFG 00119004
SNSSDSEK EQU   SNSSDAID+32                                     @D35GDFG 00120004
AEMSGERB DC    A(EMSGERBL)                                     @D61CDJK 00121004
AEMSGERR DC    A(EMSGERRE)                                     @D61CDJK 00122004
         MEXIT                                                 @D51GDAP 00123004
.NCSEC10 ANOP                                                           00124004
         AIF  ('&IJBXDB' EQ 'YES').YIJBXD1                              00124104
         AIF  ('&DEVICE' NE 'YES').NODEV10                              00124204
         SPACE 2                                               @D14BDFG 00124304
*        DEVICE ERROR ENTRY CONTROL SECTION                    @D37BDFG 00124404
         SPACE                                                          00124504
ERCHNADR DSECT                    ERROR CHAIN HEADER LAY-OUT   @D37BDFG 00124604
ERCHNPTR DS    F                  ADDR OF FIRST ENTRY IN CHAIN @D37BDFG 00124704
ERCHNTIB DS    F                  ADDR OF TIB OF CHAIN OWNER   @D37BDFG 00124804
         SPACE 1                                               @D37BDFG 00124904
.YIJBXD1 ANOP                                                           00125004
***************************************************************         00126004
*                                                             *         00127004
*        DSECT FOR DEVICE ERROR ENTRY                         *         00128004
*                                                             *         00129004
***************************************************************         00130004
         SPACE 1                                                        00131004
ERBLKADR DSECT                    ERROR BLOCK LAY-OUT          @D37BDFG 00132004
ERBLKPTR DS    F                  PTR TO NEXT BLOCK IN CHAIN   @D37BDFG 00133004
ERBLKFLG DS    X                  FLAG BYTE                    @D37BDFG 00134004
HQERBLK  EQU   X'80'              SYSTEM TASK ERROR BLOCK      @D37BDFG 00135004
ALTCHANN EQU   X'40'              ERROR ON ALTERNATE CHANNEL   @D37BDFG 00136004
ERSNSDAV EQU   X'20'              SENSE DATA AVAILABLE         @D37BDFG 00137004
ERACTIVE EQU   X'10'              ERROR BLOCK IS ACTIVE        @D37BDFG 00138004
ERQUEUED EQU   X'08'              ERROR BLOCK IS ENQUEUED      @D37BDFG 00139004
SNSONSEC EQU   X'04'              ERROR ON ALTERNATE PATH      @DA37004 00140004
ERBLKFL1 DS    X                  FLAG BYTE 1                  @D14BDFG 00141004
NEEDSNS  EQU   X'08'              SENSE OUTSTANDING            @D14BDFG 00142004
NEEDDSK  EQU   X'04'              DISK ERP OUTSTANDING         @D14BDFG 00143004
NEEDERP  EQU   X'02'              ERP OUTSTANDING              @D14BDFG 00144004
NEEDRAS  EQU   X'01'              RAS OUTSTANDING              @D14BDFG 00145004
NEEDTASK EQU   NEEDSNS+NEEDDSK+NEEDERP+NEEDRAS                 @D14BDFG 00146004
         DS    X                  RESERVED                     @D14BDFG 00147004
ERBLKSNL DS    X                  NUMBER OF SENSE BYTES        @D37BDFG 00148004
ERRQCHQA DS    XL4                ADDRESS OF CHANQ ENTRY       @D51GDAP 00149004
ERRQE4ID DS    XL32               EXTENDED SENSE ID INFORMATION@D51GDAP 00150004
ERBLKHDL EQU   *-ERBLKADR         ERBLK HEADER LENGTH          @D14BDFG 00151004
ERRQUE   EQU   *                  ERROR ENTRY                  @D37BDFG 00152004
ERRQ     DS    0CL60              IMPLIED LENGTH               @D21IDAP 00153004
ERRQLSNS DS    XL1                NUMBER OF SENSE BYTES        @D21IDAP 00154004
ERRQPRFL DS    XL1                PROCESSING FLAG              @D21IDAP 00155004
ERRQPSOV EQU   X'80'              MORE THAN ONE UNIT CHECK     @D21IDAP 00156004
ERRQPVT  EQU   X'40'              PATH VERIFICATION REQUIRED   @D51GDAP 00157004
*        EQU   X'20'              RESERVED                     @D21IDAP 00158004
*        EQU   X'10'              RESERVED                     @D21IDAP 00159004
ERRQPMSG EQU   X'08'              MSG PROCESSING CALL $$ABERRL @D21IDAP 00160004
ERRQBDPM EQU   X'04'              DUPLEX PAIR SUSPENSION MSG   @D61ADJK 00161004
ERRQHIGH EQU   X'02'              MESSAGE HIGHLIGHTING         @D63HDJK 00162004
*        EQU   X'01'              RESERVED                     @D21IDAP 00163004
ERRQERPF DS    XL1                ERP COMMUNICATION FLAG       @D21IDAP 00164004
*        EQU   X'80'              RESERVED                     @D21IDAP 00165004
ERRQPOBR EQU   X'40'              OBR PROCESSING               @D21IDAP 00166004
ERRQPMDR EQU   X'20'              MDR PROCESSING               @D21IDAP 00167004
ERRQPSIR EQU   X'10'              ALERT PROCESSING             @D21IDAP 00168004
ERRQPPER EQU   X'08'              PERMANENT ERROR              @D21IDAP 00169004
ERRQPTEM EQU   X'04'              TEMPORARY ERROR              @D21IDAP 00170004
ERRQPT91 EQU   X'02'              TYPE 91 MDR                  @D61SDJK 00171004
ERRQNREC EQU   X'01'              PREVENT RECORDING            @D61SDJK 00172004
ERRQPATH DS    XL1                PATH FAILURE INFORMATION     @D21IDAP 00173004
ERRQCOMM DS    F                  ERP COMMUNICATION AREA       @D21IDAP 00174004
ERRQCSW  DS    XL8                SAVE AREA FOR CSW            @D34SDKS 00175004
ERRQPUB  DS    XL2                PUB ADDRESS                  @D34SDKS 00176004
ERRQFLG  DS    X                  ERROR FLAGS                           00177004
         AIF  ('&IJBXDB' EQ 'YES').YIJBXD2                              00178004
TRUNRF   EQU   X'80'              NO RECORD FOUND ON DASD      @D37ADAP 00179004
OPINT    EQU   X'40'              INTERV.REQUIRED SET BY ERP   @D61SDJK 00180004
PASSBK   EQU   X'20'              PASS BACK ERROR SET BY ERP   @D61CDJK 00181004
IGNERR   EQU   X'10'              ALLOW IGNORE                          00182004
SUCCESS  EQU   X'08'              INDICATE SUCCESSFUL RECOVERY @D37ADDK 00183004
RTYERR   EQU   X'04'              ALLOW RETRY                           00184004
RECONLY  EQU   X'02'              ERROR TO BE RECORDED ONLY    @DA33314 00185004
OCCUP    EQU   X'01'              THIS ENTRY IS IN USE                  00186004
.YIJBXD2 ANOP                                                           00187004
ERRQMSG  DS    X                  MESSAGE CODE                 @D34SDKS 00188004
RCVMSG   EQU   X'20'              ERROR ON RECOVERY                     00189004
ERRQSEK  DS    XL4                SEEK ADDRESS                 @D34SDKS 00190004
ERRQ1CCW EQU   ERRQSEK            FIRST CCW TO BE RETRIED      @D61SDJK 00191004
ERRQCCB  DS    XL4                CCB ADDRESS                  @D34SDKS 00192004
         ORG   ERRQCCB                                         @D35IDKS 00193004
ERRQCQPT DS    XL1                UNSOLICITED INTERRUPT IND.   @D51GDAP 00194004
         ORG   ,                                               @D35EDKS 00195004
ERRQSNS  DS    0X                 SENSE BYTES DEVICE DEPENDANT @D21IDAP 00196004
ERRQSNSM EQU   32                 MAX NO. OF SENSE BYTES       @D21IDAP 00197004
ERRQLENG EQU   *-ERBLKADR         LENGTH OF DEVICE ERROR ENTRY @D61NDAP 00198004
         AIF  ('&IJBXDB' EQ 'YES').NODEV10                              00199004
         SPACE 1                                               @D37DDAP 00200004
         ORG   ERRQCSW            ALTERNATE ERROR ENTRY DSECT  @D51GDAP 00201004
ERQAEADR DS    XL4                SD RECORD ADDRESS            @D37DDAP 00202004
ERQAEINF DS    0XL4               SD RECORD INFORMATION        @D37DDAP 00203004
ERQAELEN DS    X                  LENGTH OF SD RECORD          @D37DDAP 00204004
ERQAETYP DS    X                  TYPE OF SD RECORD            @D37DDAP 00205004
ERQAESW1 DS    X                  RECORD DEPENDENT SWITCH 1    @D37DDAP 00206004
ERQAESW2 DS    X                  RECORD DEPENDENT SWITCH 2    @D37DDAP 00207004
ERQAEPUB DS    XL2                PUB ADDRESS                  @D37DDAP 00208004
ERQAEFLG DS    X                  ERROR ENTRY FLAG BYTE        @D37DDAP 00209004
*              X'80'              SD RECORD IS TFIXED          @D37DDAP 00210004
*              X'40'              UNUSED                       @D37DDAP 00211004
*              X'20'              UNUSED                       @D37DDAP 00212004
*              X'10'              UNUSED                       @D37DDAP 00213004
*              X'08'              UNUSED                       @D37DDAP 00214004
*              X'04'              UNUSED                       @D37DDAP 00215004
*              X'02'              MUST BE 0 FOR ALTERNATE ENTRY@D37DDAP 00216004
*              X'01'              ENTRY IS ACTIVE              @D37DDAP 00217004
ERQAEMSG DS    X                  X'AE' ALTERNATE ENTRY ID     @D37DDAP 00218004
ERQAETIB DS    XL4                ADDRESS OF TIB               @D37DDAP 00219004
ERQAEIND DS    XL1                SET TO FF TO INDICATE AE RCRD@DA34415 00220004
         DS    XL3                RESERVED                     @DA34415 00221004
ERQAECOM DS    XL32               COMMUNICATION INFORMATION    @D61NDAP 00222004
ERQAETOT EQU   *-ERQAEADR         LENGTH OF ALTERNATE ERBLOC   @D51GDAP 00223004
         SPACE 3                                               @D21WDAP 00224004
         ORG   ERRQ               CHAN.CHECK ERROR ENTRY DSECT @D21WDAP 00225004
CCEQSTRT EQU   *                  BEGIN OF CC ERROR ENTRY      @D21WDAP 00226004
CCEQNSNS DS    XL1                NO SENSE DATA AVAILABLE      @D21WDAP 00227004
         DS    XL1                RESERVED FOR SYSTEM          @D21WDAP 00228004
CCEQFLG  DS    XL1                CCH FLAG BYTE                @D21WDAP 00229004
CCEQDMC  DS    XL1                CHANNEL FAILURE INFORMATION  @D21WDAP 00230004
         DS    XL1                RESERVED                     @D21WDAP 00231004
CCEQRTC  DS    XL1                RETRY COUNTER                @D21WDAP 00232004
CCEQTIDN DS    XL2                FAILING TASK ID              @D66CDAP 00234005
CCEQCSW  DS    XL8                SAVE AREA FOR CSW            @D21WDAP 00235004
CCEQPUB  DS    XL2                SAVE AREA FOR PUB ADDRESS    @D21WDAP 00236004
CCEQSFLG DS    XL1                SYSTEM FLAG NOT FOR RAS USE  @D21WDAP 00237004
CCEQMSG  DS    XL1                MESSAGE CODE                 @D21WDAP 00238004
CCEQIOEL DS    XL4                IOEL ADDRESS                 @D21WDAP 00239004
CCEQCQP  DS    XL1                CHANQ PRESENT INDICATION     @D51ODGL 00240004
CCEQECSW DS    XL3                ECSW INFORMATION             @D21WDAP 00241004
CCEQRINF DS    XL4                RAS RECOVERY INFORMATION     @D61SDAP 00242004
CCEQLEN  EQU   *-CCEQSTRT         LENGTH OF ERROR ENTRY        @D21WDAP 00243004
         ORG   ,                                               @D14BDWK 00244004
         MEXIT                                                          00245004
.NODEV10 ANOP                                                  @D51GDAP 00246004
         AIF   (T'&NAME EQ 'O').NONAME                         @D34YDDK 00247004
&NAME    DSECT                                                          00248004
         AGO   .NAME                                           @D34YDDK 00249004
.NONAME  ANOP                                                  @D34YDDK 00250004
ERBLOC   DSECT                                                 @D34YDDK 00251004
.NAME    ANOP                      (') DUMMY QUOTE FOR PLS2    @D34YDDK 00252004
         SPACE 1                                               @D37ZDDK 00253004
************************************************************** @D37ZDDK 00254004
*        LAYOUT OF ERROR BLOCK                               * @D37ZDDK 00255004
************************************************************** @D37ZDDK 00256004
         SPACE 1                                               @D37ZDDK 00257004
SVC5NM   DS    CL7                 A-TRANSIENT PHASE NAME      @D14ZDWK 00258004
FTCHNM   DS    CL1                 LAST CHARACTER              @D14ZDWK 00259004
         ORG   SVC5NM+6            POINTS TO LAST TWO CHARS    @D34YDDK 00260004
FTCHNM2  DS    XL2                 LAST TWO CHARACTERS OF PHNM @D34YDDK 00261004
EXTRY    DS    XL4                 RETRY  EXIT ADDRESS         @D35EDDK 00262004
EXIGN    DS    XL4                 IGNORE EXIT ADDRESS         @D35EDDK 00263004
EXCAN    DS    XL4                 CANCEL EXIT ADDRESS         @D35EDDK 00264004
ERPEXIT  DS    XL4                 SUPERVISOR RETURN ADDRESS   @D35EDDK 00265004
*                                                              @D37ZDDK 00266004
*   LAYOUT OF NORMAL ERROR QUEUE ENTRY                         @D37ZDDK 00267004
*                                                              @D37ZDDK 00268004
ERQCSW   DS    XL8                 ERROR CSW                            00269004
ERQPUB   DS    XL2                 ERROR PUB ADDRESS                    00270004
ERQFLG   DS    XL1                 ERROR FLAGS                          00271004
TRUNRF   EQU   X'80'               NO RECORD FOUND (DASD)      @D37DDDK 00272004
OPINT    EQU   X'40'               OPER INTERV. REQUIRED       @D37DDDK 00273004
PASSBK   EQU   X'20'               ERR TO BE PASSED TO USER    @D37DDDK 00274004
IGNERR   EQU   X'10'               ALLOW ERROR TO BE IGNORED   @D37DDDK 00275004
SUCCESS  EQU   X'08'               RECOVERY WAS SUCCESSFUL     @D37DDDK 00276004
RTYERR   EQU   X'04'               RETRY FAILING OPERATION     @D37DDDK 00277004
RECONLY  EQU   X'02'               ERR TO BE RECORDED ONLY     @DA33314 00278004
OCCUP    EQU   X'01'               ENTRY IS CURRENTLY IN USE   @D37DDDK 00279004
ERQMSG   DS    XL1                 ERROR MESSAGE CODE                   00280004
ERQRECV  EQU   X'E2'               ERROR IS RECOVERABLE        @D34YDBH 00281004
ERQRECD  EQU   X'AE'               ALTERNATE ENTRY INDICATION  @D34YDBH 00282004
ERQSEK   DS    XL4                 ERROR SEEK ADDRESS                   00283004
ERQCHQPT DS    0XL1                CHANQ PRESENT INDICATOR     @D358DDK 00284004
ERQCCB   DS    XL4                 ERROR CCB ADDRESS                    00285004
ERQSNS   DS    XL32                ERROR SENSE BYTES           @D35GDDK 00286004
         SPACE 1                                               @D37ZDDK 00287004
*                                                              @D34YDBH 00288004
*   3800 PRINTER SENSE BYTES                                   @D34YDBH 00289004
*                                                              @D34YDBH 00290004
         SPACE 1                                               @D37ZDDK 00291004
         ORG   ERQSNS              POINTS TO SENSE DATA        @D34YDBH 00292004
ERQ3800S EQU   *                                               @D34YDBH 00293004
ERQSEN0  DS    XL1                 H/W / PROGRAMMING MALFUNCT. @D34YDBH 00294004
ERQSEN1  DS    XL1                 ADD. INFO REGARDING ERQSEN0 @D34YDBH 00295004
ERQSEN2  DS    XL1                 ADD. INFO REGARDING ERQSEN0 @D34YDBH 00296004
ERQSEN3  DS    XL1                 DYNAMIC COND. IN THE PRINTER@D34YDBH 00297004
ERQSEN4  DS    XL1                 UNIT CHECK STATUS CODES     @D34YDBH 00298004
         DS    XL19                SENSE BYTES 5-23            @D34YDBH 00299004
ERQ3800E EQU   *                   END OF 3800 SENSE BYTES     @D34YDBH 00300004
         ORG   ,                   RESET LOCATION POINTER      @D21IDAP 00301004
ERQPUB2A DS    XL4                 PUB2 ADDRESS                @D14CDAP 00302004
ERQCAW   DS    XL4                 CAW PREPARED BY ERP         @D21CDOW 00303004
ERQPRINF DS    XL8                 ERROR PROCESSING INFORMATION@D21IDAP 00304004
         ORG   ERQPRINF                                        @D21IDAP 00305004
ERQLSNS  DS    XL1                 NUMBER OF SENSE BYTES       @D21IDAP 00306004
ERQPRFL  DS    XL1                 PROCESSING FLAGS            @D21IDAP 00307004
ERQPSOV  EQU   X'80'               MORE THAN ONE UNIT CHECK    @D21IDAP 00308004
ERQPVT   EQU   X'40'               PATH VERIFICATION REQUIRED  @D51GDAP 00309004
*        EQU   X'20'               RESERVED                    @D21IDAP 00310004
ERQV510  EQU   X'10'               EXTENDED ERBLOC VERSION     @D21IDAP 00311004
ERQPMSG  EQU   X'08'               MSG PROCESSING CALL $$ABERRL@D21IDAP 00312004
*        EQU   X'04'               RESERVED                    @D21IDAP 00313004
ERQHIGH  EQU   X'02'               MESSAGE HIGHLIGHTING        @D63HDJK 00314004
*        EQU   X'01'               RESERVED                    @D21IDAP 00315004
ERQERPF  DS    XL1                 ERP COMMUNICATION FLAGS     @D21IDAP 00316004
*        EQU   X'80'               RESERVED                    @D21IDAP 00317004
ERQPOBR  EQU   X'40'               OBR PROCESSING              @D21IDAP 00318004
ERQPMDR  EQU   X'20'               MDR PROCESSING              @D21IDAP 00319004
ERQPSIR  EQU   X'10'               ALERT PROCESSING            @D21IDAP 00320004
ERQPPER  EQU   X'08'               PERMANENT ERROR             @D21IDAP 00321004
ERQPTEM  EQU   X'04'               TEMPORARY ERROR             @D21IDAP 00322004
ERQPT91  EQU   X'02'               TYPE 91 MDR                 @D61SDJK 00323004
ERQNREC  EQU   X'01'               PREVENT RECORDING           @D21BMAP 00324004
ERQPATH  DS    XL1                 PATH FAILURE INFORMATION    @D21IDAP 00325004
ERQCOMM  DS    F                   ERP COMMUNICATION AREA      @D21IDAP 00326004
         DS    XL4                 ADDRESS OF PUBX ENTRY       @D21IDAP 00327004
ERQACPU  DS    XL1                 CPU FAILURE INFORMATION     @D21BMAP 00328004
ERQRSV   DS    XL1                 RESERVED                    @D21BMAP 00329004
ERQERR   DS    XL1                 ERROR COUNT                 @D51GDAP 00330004
ERQCCODE DS    XL1                 COMMAND CODE SET BY ERP     @D51GDAP 00331004
ERQCHQA  DS    XL4                 RESERVED                    @D51GDAP 00332004
ERQFJOB  DS    XL8                 FAILING JOB NAME            @D51GDAP 00333004
ERQSCSW  DS    XL4                 SUBCHANNEL STATUS WORD 0    @D51GDAP 00334004
ERQESW   DS    XL4                 EXTENDED STATUS WORD 0      @D51GDAP 00335004
ERQECSW  EQU   ERQESW                                          @D51GDAP 00336004
ERQPUBNO DS    XL4                 PUB INDEX                   @D51GDAP 00337004
ERQTID   DS    XL2                 TASK ID OF FAILING TASK     @D51GDAP 00338004
ERQRFRLN DS    XL2                 LENGTH OF RECORDING AREA    @D51GDAP 00339004
ERQRFRAD DS    XL4                 ADDRES OF RECORDING AREA    @D51GDAP 00340004
ERQRFREC DS    XL176'00'           RF RECORD AREA              @D51GDAP 00341004
         SPACE 1                                               @D37ZDDK 00342004
*                                                              @D37ZDDK 00343004
*   LAYOUT OF ALTERNATE ERROR QUEUE ENTRY                      @D37ZDDK 00344004
*                                                              @D37ZDDK 00345004
         SPACE 1                                               @D37ZDDK 00346004
         ORG   ERQCSW                                          @D37ZDDK 00347004
ERQAEADR DS    XL4                 RECORD ADDRESS MINUS 4      @D37ZDDK 00348004
ERQAEINF DS    0XL4                RECORD INFORMATION          @D37ZDDK 00349004
ERQAELEN DS    XL1                 RECORD LENGTH               @D37ZDDK 00350004
ERQAETYP DS    XL1                 RECORD TYPE                 @D37ZDDK 00351004
ERQAESW1 DS    XL1                 RECORD DEPENDENT SWITCH 1   @D37ZDDK 00352004
ERQAESW2 DS    XL1                 RECORD DEPENDENT SWITCH 2   @D37ZDDK 00353004
ERQAEPUB DS    XL2                 POINTER TO PUB IN ERROR     @D37ZDDK 00354004
ERQAEFLG DS    XL1                 FLAG BYTE                   @D37ZDDK 00355004
ERQAEFL0 EQU   X'80'               TFIXED RECORD (SVC44)       @D37ZDDK 00356004
ERQAEFL1 EQU   X'40'               RESERVED                    @D37ZDDK 00357004
ERQAEFL2 EQU   X'20'               RESERVED                    @D37ZDDK 00358004
ERQAEFL3 EQU   X'10'               RESERVED                    @D37ZDDK 00359004
ERQAEFL4 EQU   X'08'               RESERVED                    @D37ZDDK 00360004
ERQAEFL5 EQU   X'04'               RESERVED                    @D37ZDDK 00361004
ERQAEFL6 EQU   X'02'               MUST BE ZERO FOR ALT ENTRY  @D37ZDDK 00362004