         MACRO                                                          00050001
&NAME    GENSERV &OP,&FIELD=,&REG=,&BC=,&LAB=,&COMPF=,                 -00100001
               &PGONT=,&DAT=OFF,                                       -00137501
               &PSLVAL=,&PSLSTAT=(R3),&PSLOFF=(R4),                    -00175001
               &PFTE=,&IORE=,&VPTE=,                                   -00212501
               &RREG=,&VADD=,&ERR=,                                    -00250001
               &PIK=,&PCB=,                                            -00275001
               &SCB=,&EPA=,&WORKR=(R3,R4,R5),                          -00300001
               &BLVAL=,                                                -00325001
               &RPTE=                                                   00350001
.*                                                                      00400001
         GBLB    &BGDEBUG    DEBUG                                      00408301
         GBLA    &FRM        FORMAT                                     00412401
         LCLB    &BCR        COMPARE SPECIFIFIED                        00416601
         LCLB    &BTST       TEST REQUESTED                             00424901
         LCLB    &BCMP       COMPARE REUESTED                           00433201
         LCLA    &OPC        OPERATION                                  00450001
         LCLC    &PFTER      REGISTER FOR PFTE ADDRESS                  00500001
         LCLC    &RG         REGISTER VALUE - WORK                      00650001
         LCLC    &RRG        REGISTER VALUE - REAL OUTPUT               00700001
         LCLC    &VRG        REGISTER VALUE - VIRTUAL INPUT             00750001
         LCLC    &SPA        REGISTER VALUE - SCB POINTER               00800001
         LCLC    &WR1        WORKREGISTER                               00850001
         LCLC    &WR2        WORKREGISTER                               00900001
         LCLC    &WR3        WORKREGISTER                               00950001
         LCLC    &LB         LABEL / REGISTER                           01050001
         LCLC    &CBR        BRANCHCODE                                 01100001
         LCLC    &CCL        COMPARE OPCODE                             01150001
         LCLC    &CLO        LOAD  OPCODE                               01200001
         LCLC    &CST        STORE OPCODE                               01250001
         LCLC    &CAD        ADD   OPCODE                               01300001
         LCLC    &CSU        SUBTR OPCODE                               01350001
         LCLC    &PAR        PARAMETER                                  01400001
         LCLC    &PAR1       PARAMETER                                  01450001
         LCLC    &CF         COMPARE FIELD / REGISTER                   01500001
         LCLC    &CFLD       FIELD                                      01550001
.*                                                                      01600001
.*************************************************************          01850001
.* IBM DISK OPERATING SYSTEM                                            01900001
.* SUPERVISOR - GENSERV 5686-007-06                                     01950001
.*************************************************************          02000001
.*                                                           *          02050001
.*       LICENSED MATERIALS - PROPERTY OF IBM                *          02100001
.*       THIS MACRO IS "RESTRICTED MATERIALS OF IBM"         *          02150001
.*       5686-032 (C) COPYRIGHT IBM CORP. 1992               *          02200001
.*       SEE COPYRIGHT INSTRUCTIONS                          *          02250001
.*                                                           *          02300001
.*A000000-A999999                                            * @D52VDVB 02350001
.*************************************************************          02400001
         AIF   ( '&OP' EQ 'COUNT'  ).GENS000                            02425001
         AIF   ( '&OP' EQ 'LRADBG' ).GENS000                            02450001
         AIF   ( '&OP' EQ 'IPTE'   ).GENS000                            02500001
         AIF   ( '&OP' EQ 'RPTE'   ).GENS000                            02550001
         AIF   ( '&OP' EQ 'PSLOFFS').GENS000                            02562401
         AIF   ( '&OP' EQ 'PGONT'  ).GENS000                            02566601
         AIF   ( '&OP' EQ 'VPTE'   ).GENS000                            02574901
         AIF   ( '&OP' EQ 'PAGE'   ).GENS000                            02583201
         AIF   ( '&OP' EQ 'GETPCB' ).GENS000                            02591501
         AIF   ( T'&FIELD  EQ 'O' ).ERR010   FIELD NAME MISSING         02600001
.GENS000 ANOP                                                           02650001
.*-------------------------------------------------------------------*  02700001
.*   OPERATIONS:                                                     *  02750001
.*   -----------                                                     *  02800001
.*    TYPE A:  PMR SERVIVE AIDS                                      *  02850001
.*                                                                   *  02950001
.*       RPTE    (PFTE=(R1)|EPA=(R1) SCB=(R0)) RPTE(R2) WORK=(R3,R4,R5) 02960001
.*                                                                   *  02970001
.*       VPTE    PFTE=(R1) VPTE(R2) WORK=(R3) DAT=                   *  02980001
.*                                                                   *  02990001
.*       PAGE    PFTE=(R1) VADD(R2) WORK=(R3,R4) DAT=                *  03000001
.*                                                                   *  03010001
.*       GETPCB  PIK=(R1) PCB=(R2)                                   *  03020001
.*                                                                   *  03030001
.*       IPTE    (VADD=(R1)|EPA=(R1) SCB=(R2)) WORK=(R3,R4)          *  03040001
.*                                                                   *  03050001
.*       LRADBG  RREG=(R1) VADD=(R2) ERR=ERRORCONDITION              *  03100001
.*                                                                   *  03150001
.*       PGONT   IORE=(R1) PSLSTAT=(R3) PGONT=(R4) PSLVAL=(R5) DAT=  *  03283301
.*               | PSLVAL=(R3) PGONT=(R4) DAT=                       *  03305501
.*       PSLOFFS IORE=(R1) PSLOFF=(R2) WORKR(R3)                     *  03327701
.*                                                                   *  03350001
.*       COUNT   FIELD= REG=0  WORK=(R4) BLKVAL=(R3)                 *  03366601
.*                                                                   *  03383201
.*                                                                   *  03400001
.*    TYPE B:  FIELD SERVICES                                        *  03450001
.*                                                                   *  03500001
.*       SET0    FIELD=                                              *  03550001
.*                                                                   *  03600001
.*       SET1    FIELD=                                              *  03650001
.*                                                                   *  03700001
.*       GETF    FIELD= REG=0                                        *  03750001
.*                                                                   *  03800001
.*       PUTF    FIELD= REG=0                                        *  03850001
.*                                                                   *  03900001
.*       ADDF    FIELD= REG=0                                        *  03950001
.*                                                                   *  04000001
.*       SUBF    FIELD= REG=0                                        *  04050001
.*                                                                   *  04100001
.*       COMF    FIELD= REG=0  BC=BRC LAB=LABEL                      *  04116601
.*                                                                   *  04133201
.*       INCR    FIELD= REG=0                                        *  04150001
.*                                                                   *  04200001
.*       DECR    FIELD= REG=0                                        *  04250001
.*                                                                   *  04300001
.*       TEST    FIELD= REG=0  BC=BRC LAB=LABEL                      *  04350001
.*                                                                   *  04400001
.*       COMP    FIELD= REG=0  BC=    LAB=  COMPF=(FWORD|(R))        *  04450001
.*                                                                   *  04500001
.*       INCTEST FIELD= REG=0  BC=    LAB=                           *  04550001
.*                                                                   *  04600001
.*       DECTEST FIELD= REG=0  BC=    LAB=                           *  04650001
.*                                                                   *  04700001
.*       TESTINC FIELD= REG=0  BC=    LAB=                           *  04750001
.*                                                                   *  04800001
.*       TESTDEC FIELD= REG=0  BC=    LAB=                           *  04850001
.*                                                                   *  04900001
.*       INCOMP  FIELD= REG=0  BC=    LAB=  COMPF=                   *  04950001
.*                                                                   *  05000001
.*       DECOMP  FIELD= REG=0  BC=    LAB=  COMPF=                   *  05050001
.*                                                                   *  05100001
.*       COMPINC FIELD= REG=0  BC=    LAB=  COMPF=                   *  05150001
.*                                                                   *  05200001
.*       COMPDEC FIELD= REG=0  BC=    LAB=  COMPF=                   *  05250001
.*                                                                   *  05260000
.*    TYPE C:  DEBUG CALLS                                           *  05270000
.*                                                                   *  05280000
.*       DEBUG   FIELD= FCHENTRY                                     *  05290000
.*-------------------------------------------------------------------*  05300001
&BCR     SETB  0                                                        05350001
&BCMP    SETB  0                                                        05400001
&BTST    SETB  0                                                        05450001
&CFLD    SETC  '&FIELD'                                                 05500001
&CF      SETC  ' '                                                      05550001
&LB      SETC  ' '                                                      05600001
&RG      SETC  '0'                                                      05650001
&CBR     SETC  ' '                                                      05700001
&VRG     SETC  ' '                                                      05750001
.*                                                                      05800001
&OPC     SETA  1                         INCREASE                       05850001
         AIF   ('&OP' EQ 'INC').CHECKFM                  1              05900001
&OPC     SETA  &OPC+1                    INCREASE + TEST                05950001
         AIF   ('&OP' EQ 'INCTEST').SETTST               2              06000001
&OPC     SETA  &OPC+1                    INCREASE + COMPARE             06050001
         AIF   ('&OP' EQ 'INCOMP').SETCMP                3              06100001
&OPC     SETA  &OPC+1                    DECREASE                       06150001
         AIF   ('&OP' EQ 'DEC').CHECKFM                  4              06200001
&OPC     SETA  &OPC+1                    DECREASE + TEST                06250001
         AIF   ('&OP' EQ 'DECTEST').SETTST               5              06300001
&OPC     SETA  &OPC+1                    DECREASE + COMPARE             06350001
         AIF   ('&OP' EQ 'DECOMP').SETCMP                6              06400001
&OPC     SETA  &OPC+1                    COMPARE                        06450001
         AIF   ('&OP' EQ 'COMP').SETCMP                  7              06500001
&OPC     SETA  &OPC+1                    TEST                           06550001
         AIF   ('&OP' EQ 'TEST').SETTST                  8              06600001
&OPC     SETA  &OPC+1                    TEST + DECREASE                06650001
         AIF   ('&OP' EQ 'TESTDEC').SETTST               9              06700001
&OPC     SETA  &OPC+1                    COMPARE + DECREASE             06750001
         AIF   ('&OP' EQ 'COMPDEC').SETCMP              10              06800001
&OPC     SETA  &OPC+1                    TEST + INCREASE                06850001
         AIF   ('&OP' EQ 'TESTINC').SETTST              11              06900001
&OPC     SETA  &OPC+1                    COMPARE + INCREASE             06950001
         AIF   ('&OP' EQ 'COMPINC').SETCMP              12              07000001
&OPC     SETA  &OPC+1                    SET TO ZERO                    07050001
         AIF   ('&OP' EQ 'SET0'   ).CHECKFM             13              07100001
&OPC     SETA  &OPC+1                    SET TO ONE                     07150001
         AIF   ('&OP' EQ 'SET1'   ).CHECKFM             14              07200001
&OPC     SETA  &OPC+1                    GET CURRENT VALUE              07250001
         AIF   ('&OP' EQ 'GETF'   ).CHECKFM             15              07300001
&OPC     SETA  &OPC+1                    STORE CURRENT VALUE            07350001
         AIF   ('&OP' EQ 'PUTF'   ).CHECKFM             16              07400001
&OPC     SETA  &OPC+1                    ADD TO REGISTER                07450001
         AIF   ('&OP' EQ 'ADDF'   ).CHECKFM             17              07500001
&OPC     SETA  &OPC+1                    ADD TO REGISTER                07550001
         AIF   ('&OP' EQ 'SUBF'   ).CHECKFM             18              07600001
&OPC     SETA  &OPC+1                    ADD TO REGISTER                07605001
         AIF   ('&OP' EQ 'COMF'   ).SETTST              19              07610001
&OPC     SETA  50                                                       07615001
         AIF   ('&OP' EQ 'VPTE'   ).VPTECHK             50              07630001
&OPC     SETA  51                        RESERVED                       07652501
&OPC     SETA  52                        PRE PAGE OUT ENTRY / IORE      07675001
         AIF   ('&OP' EQ 'PGONT'  ).PGNTCHK             52              07690001
.*       SETA  53                        OCCUPIED BY PRE-PAGE-OUT       07705001
&OPC     SETA  54                        PAGE                           07720001
         AIF   ('&OP' EQ 'PAGE'   ).PAGECHK             54              07735001
&OPC     SETA  55                        PSLOFFSET                      07740001
         AIF   ('&OP' EQ 'PSLOFFS').POFFCHK             55              07745001
&OPC     SETA  60                        LRA AND CHECK                  07750001
         AIF   ('&OP' EQ 'LRADBG' ).LRADBG              60              07800001
&OPC     SETA  61                        IPTE EXTENSION                 07850001
         AIF   ('&OP' EQ 'IPTE'   ).IPTECHK             61              07900001
&OPC     SETA  62                        IPTE EXTENSION                 07950001
         AIF   ('&OP' EQ 'RPTE'   ).RPTECHK             62              08000001
&OPC     SETA  63                        GETPCB EXTENSION               08016601
         AIF   ('&OP' EQ 'GETPCB' ).GTPCBCK             63              08033201
&OPC     SETA  64                        FREE                           08035001
&OPC     SETA  65                        FREE                           08036801
&OPC     SETA  66                        FREE                           08038601
&OPC     SETA  67                        FREE                           08040401
&OPC     SETA  68                        FREE                           08042201
&OPC     SETA  69                        FREE                           08044001
&OPC     SETA  70                        COUNT BLOCKED PAGE I/O         08045801
         AIF   ('&OP' EQ 'COUNT'  ).COUNCHK             70              08047601
&OPC     SETA  71                        DEBUG                          08048400
         AIF   ('&OP' EQ 'DEBUG'  ).GENCODE             81              08049200
         AGO   .ERR000                                                  08050001
.*                                                                      08100001
         AIF   ( T'&NAME  EQ 'O').NONAME                                08150001
&NAME    DS    0H                                                       08200001
.NONAME  ANOP                                                           08250001
.*                                                                      08300001
.*--------------------------------------------------------------------* 08301001
.GTPCBCK ANOP                                                           08302001
&PAR     SETC  'PIK'                                                    08303001
         AIF   (T'&PIK   EQ 'O'   ).ERR130                              08304001
         AIF   ('&PIK'(1,1) NE '(').ERR030                              08305001
&PAR     SETC  'PCB'                                                    08306001
         AIF   (T'&PCB  EQ 'O'    ).ERR130                              08307001
         AIF   ('&PCB'(1,1) NE '(').ERR030                              08308001
&WR1     SETC  '&PIK'(2,K'&PIK-2)                                       08309001
&WR2     SETC  '&PCB'(2,K'&PCB-2)                                       08310001
         AGO   .GENCODE                                                 08311001
.*--------------------------------------------------------------------* 08312001
.PAGECHK ANOP                                                           08313001
&PAR     SETC  'PFTE'                                                   08314001
         AIF   (T'&PFTE  EQ 'O'    ).ERR130                             08315001
         AIF   ('&PFTE'(1,1) NE '(').ERR030                             08316001
&PAR     SETC  'VADD'                                                   08317001
         AIF   (T'&VADD  EQ 'O'    ).ERR130                             08318001
         AIF   ('&VADD'(1,1) NE '(').ERR030                             08319001
         AIF   ('&DAT' NE 'OFF' AND '&DAT' NE 'ON').ERR110              08320001
&VRG     SETC  '&VADD'(2,K'&VADD-2)                                     08321001
&RRG     SETC  '&PFTE'(2,K'&PFTE-2)                                     08322001
&WR1     SETC  '&WORKR(1)'                                              08323001
&WR2     SETC  '&WORKR(2)'                                              08324001
         AIF   ('&RRG'      EQ '&VRG'      ).ERR170                     08325001
         AIF   ('&WR1'      EQ '&VRG'      ).ERR170                     08326001
         AIF   ('&WR1'      EQ '&RRG'      ).ERR170                     08327001
         AIF   ('&WR2'      EQ '&VRG'      ).ERR170                     08328001
         AIF   ('&WR2'      EQ '&RRG'      ).ERR170                     08329001
         AIF   ('&WR2'      EQ '&WR1'      ).ERR170                     08330001
         AGO   .GENCODE                                                 08331001
.*--------------------------------------------------------------------* 08332001
.VPTECHK ANOP                                                           08333001
&PAR     SETC  'PFTE'                                                   08334001
         AIF   (T'&PFTE  EQ 'O' ).ERR130                                08335001
         AIF   ('&PFTE'(1,1) NE '(').ERR030                             08336001
&PAR     SETC  'VPTE'                                                   08337001
         AIF   (T'&VPTE  EQ 'O'    ).ERR130                             08338001
         AIF   ('&VPTE'(1,1) NE '(').ERR030                             08339001
         AIF   ('&DAT' NE 'OFF' AND '&DAT' NE 'ON' AND '&DAT' NE       *08339601
               'OFFON' ).ERR110             *                           08340201
&VRG     SETC  '&VPTE'(2,K'&VPTE-2)                                     08341001
&RRG     SETC  '&PFTE'(2,K'&PFTE-2)                                     08342001
&WR1     SETC  '&WORKR(1)'                                              08343001
         AIF   ('&RRG'      EQ '&VRG'      ).ERR170                     08344001
         AIF   ('&WR1'      EQ '&VRG'      ).ERR170                     08345001
         AIF   ('&WR1'      EQ '&RRG'      ).ERR170                     08346001
         AGO   .GENCODE                                                 08347001
.*--------------------------------------------------------------------* 08350001
.RPTECHK ANOP                                                           08400001
&PAR     SETC  'PFTE'                                                   08450001
&PAR1    SETC  'EPA'                                                    08500001
         AIF   (T'&PFTE  EQ 'O' AND T'&EPA EQ 'O').ERR140               08550001
         AIF   (T'&PFTE  NE 'O' AND T'&EPA NE 'O').ERR200               08600001
         AIF   (T'&PFTE  EQ 'O' ).RPTD000                               08650001
         AIF   ('&PFTE'(1,1) NE '(').ERR030                             08700001
         AGO   .RPTD010                                                 08750001
.RPTD000 ANOP                                                           08800001
&PAR     SETC  'EPA'                                                    08850001
&PAR1    SETC  'SCB'                                                    08900001
         AIF   (T'&SCB  EQ  'O'    ).ERR210                             08950001
         AIF   ('&EPA'(1,1) NE '(' ).ERR030                             09000001
&PAR     SETC  'SCB'                                                    09050001
         AIF   ('&SCB'(1,1) NE '(' ).ERR030                             09100001
&SPA     SETC  '&SCB'(2,K'&SCB-2)                                       09150001
.RPTD010 ANOP                                                           09200001
&PAR     SETC  'RPTE'                                                   09250001
         AIF   (T'&RPTE  EQ 'O'    ).ERR130                             09300001
         AIF   ('&RPTE'(1,1) NE '(').ERR030                             09350001
&RRG     SETC  '&RPTE'(2,K'&RPTE-2)                                     09400001
         AIF   (T'&PFTE  EQ 'O' ).RPTD020                               09450001
&VRG     SETC  '&PFTE'(2,K'&PFTE-2)                                     09500001
         AGO   .RPTD030                                                 09550001
.RPTD020 ANOP                                                           09600001
&VRG     SETC  '&EPA'(2,K'&EPA-2)                                       09650001
.RPTD030 ANOP                                                           09700001
&WR1     SETC  '&WORKR(1)'                                              10550001
&WR2     SETC  '&WORKR(2)'                                              10600001
&WR3     SETC  '&WORKR(3)'                                              10650001
         AIF   ( N'&WORKR NE  3            ).ERR170                     10652901
         AIF   ('&WORKR'(1,1) NE '('       ).ERR170                     10655801
         AIF   ('&WR1' EQ '&VRG'           ).ERR170                     10658701
         AIF   ('&WR2' EQ '&VRG'           ).ERR170                     10661601
         AIF   ('&WR3' EQ '&VRG'           ).ERR170                     10664501
         AIF   ('&WR1' EQ '&WR2'           ).ERR180                     10667401
         AIF   ('&WR2' EQ '&WR3'           ).ERR180                     10670301
         AIF   ('&WR1' EQ '&WR3'           ).ERR180                     10673201
         AIF   ('&WR1' EQ '&RRG'           ).ERR170                     10676101
         AIF   ('&WR2' EQ '&RRG'           ).ERR170                     10679001
         AIF   ('&WR3' EQ '&RRG'           ).ERR170                     10681901
         AIF   ('&WR1' EQ '&SPA'           ).ERR170                     10684801
         AIF   ('&WR2' EQ '&SPA'           ).ERR170                     10687701
         AIF   ('&WR3' EQ '&SPA'           ).ERR170                     10690601
         AIF   ('&SPA' EQ '&VRG'           ).ERR170                     10693501
.*                                                                      10696401
         AGO   .GENCODE                                                 10700001
.*--------------------------------------------------------------------* 10750001
.IPTECHK ANOP                                                           10800001
&PAR     SETC  'VADD'                                                   10850001
&PAR1    SETC  'EPA'                                                    10900001
         AIF   (T'&VADD  EQ 'O' AND T'&EPA EQ 'O').ERR140               10950001
         AIF   (T'&VADD  NE 'O' AND T'&EPA NE 'O').ERR200               11000001
         AIF   (T'&VADD  EQ 'O' ).IPTD000                               11050001
         AIF   ('&VADD'(1,1) NE '(').ERR030                             11100001
         AGO   .IPTD010                                                 11150001
.IPTD000 ANOP                                                           11200001
&PAR     SETC  'EPA'                                                    11250001
         AIF   ('&EPA'(1,1) NE '(').ERR030                              11300001
.IPTD010 ANOP                                                           11350001
         AIF   (T'&SCB      EQ 'O').ERR150                              11400001
&PAR     SETC  'SCB'                                                    11450001
         AIF   ('&SCB'(1,1) NE '(').ERR030                              11500001
&SPA     SETC  '&SCB'(2,K'&SCB-2)                                       11550001
         AIF   (T'&VADD  EQ   'O' ).IPTD020                             11600001
&VRG     SETC  '&VADD'(2,K'&VADD-2)                                     11650001
         AGO   .IPTD030                                                 11700001
.IPTD020 ANOP                                                           11750001
&VRG     SETC  '&EPA'(2,K'&EPA-2)                                       11800001
.IPTD030 ANOP                                                           11850001
&WR1     SETC  '&WORKR(1)'                                              12350001
&WR2     SETC  '&WORKR(2)'                                              12400001
         AIF   ('&WORKR'(1,1) NE '('       ).ERR170                     12406201
         AIF   ('&WR1' EQ '&VRG'           ).ERR170                     12412401
         AIF   ('&WR2' EQ '&VRG'           ).ERR170                     12418601
         AIF   ('&WR1' EQ '&WR2'           ).ERR180                     12424801
         AIF   ('&VRG' EQ '&RRG'           ).ERR190                     12431001
         AIF   ('&WR1' EQ '&RRG'           ).ERR170                     12437201
         AIF   ('&WR2' EQ '&RRG'           ).ERR170                     12443401
         AGO   .GENCODE                                                 12450001
.*                                                                      12475001
.*--------------------------------------------------------------------* 12500001
.LRADBG  ANOP                                                           12550001
&PAR     SETC  'VADD'                                                   12600001
         AIF   (T'&VADD  EQ 'O').ERR130                                 12650001
&PAR     SETC  'ERR'                                                    12700001
         AIF   (T'&ERR   EQ 'O').ERR130                                 12750001
&PAR     SETC  'RREG'                                                   12800001
         AIF   (T'&RREG  EQ 'O').ERR130                                 12850001
         AIF   ('&RREG'(1,1) NE '(').ERR030                             12900001
&CBR     SETC  '7'                             ERROR IF ADDRESSABLE     12950001
         AIF   ('&ERR' EQ 'ADDR'    ).LRAD10                            13000001
&CBR     SETC  '8'                             ERROR IF NOT ADDRESSABLE 13050001
         AIF   ('&ERR' EQ 'NADDR'   ).LRAD10                            13100001
&CBR     SETC  '11'                            ERROR IF SEGMENT X       13150001
         AIF   ('&ERR' EQ 'SEGX'    ).LRAD10                            13200001
&CBR     SETC  '4'                             ERROR IF NOT SEGMENT X   13250001
         AIF   ('&ERR' EQ 'NSEGX'   ).LRAD10                            13300001
&CBR     SETC  '13'                            ERROR IF PAGE X          13350001
         AIF   ('&ERR' EQ 'PAGX'    ).LRAD10                            13400001
&CBR     SETC  '2'                             ERROR IF NO PAGE X       13450001
         AIF   ('&ERR' NE 'NPAGX'   ).ERR140                            13500001
.LRAD10  ANOP                                                           13550001
&RRG     SETC  '&RREG'(2,K'&RREG-2)                                     13600001
         AIF   ('&VADD'(1,1) NE '(').GENCODE                            13650001
&VRG     SETC  '&VADD'(2,K'&VADD-2)                                     13700001
         AGO   .GENCODE                                                 13750001
.*--------------------------------------------------------------------* 13850001
.POFFCHK ANOP                                                           13852601
&PAR     SETC  'IORE'                                                   13855201
         AIF   (T'&IORE  EQ  'O'   ).ERR130                             13857801