* A 00000000-99999999                                              @L8A 00050000
*********************************************************************   00100000
*                                                                       00150000
*  $MAC(ICHMM) COMP(SC1BN) PROD(SAF):                                   00200000
*                                                                       00250000
*  DESCRIPTIVE NAME = ROUTE INNER MACRO,PARAMETER LIST GENERATOR        00300000
*                                                                       00350000
*  COPYRIGHT =  5740-XYN, 5740-XYS COPYRIGHT IBM CORP 1976, 1982        00400000
*               LICENSED MATERIAL - PROGRAM PROPERTY OF IBM             00450000
*               REFER TO COPYRIGHT INSTRUCTIONS FORM NUMBER G120-2083   00500000
*                                                                       00550000
*  STATUS = OS/VS2 EBB1102                                              00600000
*                                                                       00650000
*  FUNCTION = THIS INNER MACRO MAY BE USED BY ANY MACRO TO GENERATE     00700000
*             A PARAMETER IN A PARAMETER LIST.                          00750000
*                                                                       00800000
*  MODULE TYPE = MACRO                                                  00850000
*                                                                       00900000
*  CHANGE ACTIVITY =                                                    00950000
*                    $T0=UZ90211,SAF/RF15,811015,CNTDSD:                01000000
*                    UZ90283                                   @ZA90283 01050000
*                    UZ90284                                   @ZA90284 01100000
*                    UZ90285                                   @ZA90285 01150000
*                                                                       01200000
**********************************************************************  01250000
         MACRO                                                          01300000
&NAME    ICHMM &PARM                                                    01350000
.* DEFINE GLOBAL SET VARIABLES                                          01400000
         GBLA  &ICHCT          ICHCT - A COUNTER USED TO                01450000
.*                             DETERMINE THE DISPLACEMENT IN THE        01500000
.*                             PARAMETER LIST WHERE THE PARAMETER       01550000
.*                             SHOULD BE PLACED.                        01600000
.*                             THE COUNTER IS INCREMENTED               01650000
.*                             BY 1 ON EACH CALL BEFORE EXIT.           01700000
         GBLB  &ICHLIST        ICHLIST - A FLAG WHICH INDICATES THE     01750000
.*                             FORMAT OF THE MACRO. FOR LIST FORMAT,    01800000
.*                             ICHLIST IS ON, FOR EXECUTE FORMAT, OFF.  01850000
.*                             FOR STANDARD FORMAT,IF ICHLIST IS ON,    01900000
.*                             IT IS THE LIST PASS OF STANDARD, IF      01950000
.*                             ICHLIST IS OFF, IT IS THE EXECUTE PASS.  02000000
         GBLB  &ICHNTFY        ICHNTFY - A GLOBAL INDICATOR WHICH IS    02050000
.*                             SET BY THE OUTER(CALLING) MACRO.         02100000
.*                             IF ICHNTFY IS ON, NO MNOTE WILL BE       02150000
.*                             ISSUED - IT WILL BE LEFT TO THE OUTER    02200000
.*                             MACRO TO DEAL WITH THE ERROR.            02250000
         GBLB  &ICHINER        ICHINER - A GLOBAL INDICATOR WHICH IS    02300000
.*                             USED TO COOMUNICATE TO THE OUTER MACRO   02350000
.*                             THAT AN ERROR WAS FOUND IN A PARAMETER.  02400000
         GBLC  &ICHMF          ICHMF - AN INDICATOR OF THE FORMAT       02450000
.*                             L, E, OR S.                              02500000
.*  DEFINE LOCAL SET VARIABLES                                          02550000
         LCLA  &DISP           DISP - THE DISPLACEMENT INTO THE         02600000
.*                             PARAMETER LIST WHERE THE PARAMETER       02650000
.*                             IS TO BE PLACED.                         02700000
.*  CALCULATE DISPLACEMENT OF PARAMETER INTO LIST                       02750000
&DISP    SETA  (&ICHCT*4)                                               02800000
         AIF   (NOT &ICHLIST).AVM003                                    02850000
.************************************************                       02900000
.*  GENERATE PARAMETER LIST ENTRY FOR LIST FORMAT                       02950000
.*  OR FOR LIST PASS OF STANDARD FORMAT.                                03000000
.************************************************                       03050000
         AIF   ('&PARM' EQ '').AVM001                                   03100000
         AIF   ('&PARM'(1,1) NE '(').AVM002                             03150000
         AIF   ('&ICHMF' EQ 'L').ERR01      REG INVALID FOR MF=L        03200000
.AVM001  ANOP                                                           03250000
         DC    A(0)                                                     03300000
         AGO   .AVMXIT                                                  03350000
.AVM002  ANOP                                                           03400000
         DC    A(&PARM)                                                 03450000
         AGO   .AVMXIT                                                  03500000
.*******************************************************                03550000
.*  INSERT VALUE INTO PARAMETER LIST FOR EXECUTE FORMAT,                03600000
.*  OR FOR EXECUTE PASS OF STANDARD FORMAT.                             03650000
.*******************************************************                03700000
.AVM003  ANOP                                                           03750000
         AIF   ('&PARM' EQ '').AVMXIT                                   03800000
         AIF   ('&PARM'(1,1) NE '(').AVM004                             03850000
         ST    &PARM(1),&DISP.(1)                                       03900000
         AGO   .AVMXIT                                                  03950000
.AVM004  ANOP                                                           04000000
         AIF   ('&ICHMF' EQ 'S').AVMXIT                                 04050000
         LA    15,&PARM                                                 04100000
         ST    15,&DISP.(1)                                             04150000
         AGO   .AVMXIT                                                  04200000
.*   ERROR MESSAGE                                                      04250000
.ERR01   ANOP                                                           04300000
&ICHINER SETB  1           INDICATE ERROR FOUND                         04350000
         AIF   (&ICHNTFY).AVMXIT   ICHNTFY ON - LEAVE MACRO NORMALLY    04400000
         MNOTE 12,'***INVALID FORMAT FOR LIST FORM - &PARM'             04450000
         MEXIT                                                          04500000
.AVMXIT  ANOP                                                           04550000
&ICHCT   SETA  &ICHCT+1                                                 04600000
         MEND                                                           04650000
