         MACRO                                                          00050000
&NAME    IMR   &FUNC,&BUFFER=,&PID=,&RC=                                00100000
         LCLA  &IMROPEN                                                 00150000
         LCLA  &IMRCLOS                                                 00200000
         LCLA  &IMRGET                                                  00250000
         LCLA  &IMRPUT                                                  00300000
         LCLA  &IMRBACK                                                 00350000
         LCLA  &IMRKEEP                                                 00400000
         LCLA  &IMRCOMM                                                 00450000
         LCLA  &IMRRETN                                                 00500000
         LCLA  &IMRFORM                                                 00550000
         LCLA  &IMROLST                                                 00600000
         LCLA  &IMRGLST                                                 00650000
         LCLA  &IMRCLST                                                 00700000
.*       IBM DISK OPERATING SYSTEM                            *         00750000
*        SUPERVISOR - IMR      - 5686-007-06-C441  (90/01/16) *@D31FMIS 00800000
         AGO   .ZZZ                                           *         00850000
*        THIS MACRO IS "RESTRICTED MATERIALS OF IBM"          *         00900000
*        5686-007 (C) COPYRIGHT IBM CORP. 1989                *         00950000
*        ALL RIGHTS RESERVED                                  *         01000000
*        LICENSED MATERIALS-PROPERTY OF IBM                   *         01050000
.*       SEE COPYRIGHT INSTRUCTIONS, G120-2083                *         01100000
.ZZZ     ANOP                                                 *         01150000
.**** START OF SPECIFICATIONS ***************************************** 01200000
.*                                                                      01250000
.*01* MODULE-TYPE = MACRO                                               01300000
.*                                                                      01350000
.*01* DESCRIPTIVE NAME = INTERMEDIATE RECORD (IMR) FILE SERVICES        01400000
.*                                                                      01450000
.*  STATUS           =  NEW MACRO - FIRST RELEASE SP 4.1.1              01500000
.*                                                                      01550000
.*  FUNCTION         =  PROVIDES AN INTERFACE TO THE IMR FILE           01600000
.*                      SERVICES PERFORMED BY MODULE IVMPIIMR.          01650000
.*                      THE SERVICES ARE:                               01700000
.*                      - OPEN IMR FILE                                 01750000
.*                      - CLOSE IMR FILE                                01800000
.*                      - GET IMR RECORD                                01850000
.*                      - PUT IMR RECORD                                01900000
.*                      - KEEP IMR RECORD                               01950000
.*                      - COMMIT IMR RECORD                             02000000
.*                      - (WRITE) BACK IMR RECORD                       02050000
.*                      - FORMAT IMR FILE                               02100000
.*                      - RETURN (INTERNALLY USED BY IVMPIIMR)          02150000
.*                      - OPEN LIST  QUEUE RETRIEVAL           @D31FMIS 02200000
.*                      - CLOSES LIST  QUEUE RETRIEVAL         @D31FMIS 02250000
.*                      - RETRIVES IMR RECORDS FROM LIST  QUEUE@D31FMIS 02300000
.*                                                                      02350000
.*                       IMR  OPEN                                      02400000
.*                            OPENS THE IMR FILE. ON FIRST OPEN REQUEST 02450000
.*                            A BAM OPEN IS PERFORMED AS WELL           02500000
.*                                                                      02550000
.*                       IMR  CLOSE                                     02600000
.*                            CLOSES THE IMR FILE                       02650000
.*                                                                      02700000
.*                       IMR  GET,BUFFER=NAME|(ADDR)                    02750000
.*                            RETRIEVE A RECORD FROM THE IMR FILE AND   02800000
.*                            SAVE IT INTO AN AREA INDICATED BY BUFFER  02850000
.*                                                                      02900000
.*                       IMR  PUT,BUFFER=NAME|(ADDR)                    02950000
.*                            RETRIEVE A RECORD FROM AN AREA INDICATED  03000000
.*                            BY BUFFER AND STORE IT INTO THE IMR FILE  03050000
.*                                                                      03100000
.*                       IMR  KEEP,PID=NAME|(ADDR)                      03150000
.*                            KEEP A RECORD UNTIL A COMMIT IS ISSUED    03200000
.*                            WITH THE SAME PARTITION ID (PID)          03250000
.*                                                                      03300000
.*                       IMR  COMMIT,PID=NAME|(ADDR)                    03350000
.*                            DELETE A PREVIOUSLY READ RECORD FOR WHICH 03400000
.*                            A 'KEEP' WAS REQUESTED BEFORE             03450000
.*                                                                      03500000
.*                       IMR  BACK,BUFFER=NAME|(ADDR)                   03550000
.*                            WRITE BACK A RECORD TO IMR FILE WHICH HAS 03600000
.*                            BEEN READ AND A KEEP WAS ISSUED BEFORE    03650000
.*                                                                      03700000
.*                       IMR  FORMAT                                    03750000
.*                            FORMATS THE IMR FILE. MIGHT BE USED TO    03800000
.*                            CLEAR THE FILE                            03850000
.*                                                                      03900000
.*                       IMR  RETURN,RC=NAME|(ADDR)                     03950000
.*                            RETURN CONTROL TO SUPERVISOR.             04000000
.*                            INTERNALLY USED BY IVMPIIMR.              04050000
.*                                                                      04100000
.*                       IMR  OPENLST                          @D31FMIS 04150000
.*                            OPENS RETRIEVAL FROM LIST  QUEUE @D31FMIS 04200000
.*                                                                      04250000
.*                       IMR  CLOSELST                         @D31FMIS 04300000
.*                            CLOSES RETRIEVAL FROM LIST  QUEUE@D31FMIS 04350000
.*                                                                      04400000
.*                       IMR  GETLST                           @D31FMIS 04450000
.*                            ALL IMR RECORDS ON THE LIST      @D31FMIS 04500000
.*                            QUEUE ARE READ AND WRITTEN TO    @D31FMIS 04550000
.*                            THE IMR FILE                     @D31FMIS 04600000
.*                                                                      04650000
.*  NOTES            =  NONE                                            04700000
.*  DEPENDENCIES     =  NONE                                            04750000
.*  RESTRICTIONS     =  NONE                                            04800000
.*  REGISTER CONVENT.=  REGISTER  0 = TASK ID (TIK)                     04850000
.*                   =  REGISTER  1 = BUFFER ADDR  OR  PID VALUE        04900000
.*                      REGISTER 10 = ENTRY POINT ADDR                  04950000
.*                      REGISTER 13 = ADDR OF MAIN CB MSS               05000000
.*                      REGISTER 15 = FUNCTION CODE                     05050000
.*  PATCH LABEL      =  NONE                                            05100000
.*  MACRO TYPE       =  ASSEMBLER                                       05150000
.*  PROCESSOR        =  ASM                                             05200000
.*  MACRO SIZE       =  SEE OUTPUT                                      05250000
.*  ATTRIBUTES       =  MAPPING EQU AND/OR INLINE CODE                  05300000
.*  ENTRY POINT      =  NONE                                            05350000
.*  PURPOSE          =  SEE FUNCTION                                    05400000
.*  LINKAGE          =  NONE                                            05450000
.*  CALLER           =  SGIVM (SVC117)                                  05500000
.*  INPUT            =  IMR  FUNCTION,                                  05550000
.*                          <BUFFER=NAME|(ADDR),>                       05600000
.*                          <&PID=NAME|(ADDR),>                         05650000
.*                          <&RC=NAME|(ADDR)>                           05700000
.*  OUTPUT           =  REG15 CONTAINS A RETURN CODE                    05750000
.*                      MSSIRET CONTAINS A MACRO RETURN CODE IF MSSIERR 05800000
.*                      IS NOT ZERO                                     05850000
.*                      MSSIERR CAN CONTAIN A RETURN CODE IF A INTERNAL 05900000
.*                      MACRO REQUEST OF IVMPIIMR HAS FAILED:           05950000
.*                        MSSLABEL EQU X'80  LABEL MACRO FAILED         06000000
.*                        MSSGVCE  EQU X'40  GETVCE MACRO FAILED        06050000
.*                        MSSASSG  EQU X'20  ASSIGN MACRO FAILED        06100000
.*                        MSSSGVS  EQU X'10  SYSTEM GETVIS ERROR        06150000
.*  EXIT NORMAL      =  MACRO EXPANSION                                 06200000
.*  EXIT ERROR       =  MACRO EXPANSION IGNORED                         06250000
.*  EXTERNAL REFEREN.=  NONE                                            06300000
.*  ROUTINES         =  NONE                                            06350000
.*  DATA AREAS       =  NONE                                            06400000
.*  CONTROL BLOCKS   =  NONE                                            06450000
.*  TABLES           =  NONE                                            06500000
.*  MACROS           =  NONE                                            06550000
.*  CHANGE ACTIVITIES=  NEW MACRO   FIRST RELEASE SP 4.1.1     @D31ZDMB 06600000
.*                      ZILLE RELEASE 2                        @D31FMIS 06650000
.*  MODIFIED REGISTER=  DEPENDENT ON FUNCTION                           06700000
.*                                                                      06750000
.** END OF SPECICATIONS *********************************************** 06800000
.*                                                                      06850000
.************  INIT OP CODES ************************************       06900000
&IMROPEN SETA  1            OPEN IMR FILE                               06950000
&IMRCLOS SETA  2            CLOSE IMR FILE                              07000000
&IMRGET  SETA  3            GET IMR                                     07050000
&IMRPUT  SETA  4            PUT IMR                                     07100000
&IMRBACK SETA  5            BACK IMR                                    07150000
&IMRKEEP SETA  6            KEEP IMR                                    07200000
&IMRCOMM SETA  7            COMMIT IMR                                  07250000
&IMRRETN SETA  8            RETURN                                      07300000
&IMRFORM SETA  9            FORMAT IMR FILE                             07350000
&IMROLST SETA  10           OPENLST                            @D31FMIS 07400000
&IMRCLST SETA  11           CLOSELST                           @D31FMIS 07450000
&IMRGLST SETA  12           GETLST                             @D31FMIS 07500000
.****************************************************************       07550000
         AIF   (T'&FUNC NE 'O').OPEN                                    07600000
         MNOTE 8,'MANDATORY POSITIONAL PARM MISSING. MACRO IGNORED'     07650000
         MEXIT                                                          07700000
*                                                                       07750000
&NAME    DS    0H                                                       07800000
*                                                                       07850000
.OPEN    AIF   ('&FUNC' NE 'OPEN').CLOSE                                07900000
         LA    15,&IMROPEN           FUNCTION CODE                      07950000
         AGO   .CONT                                                    08000000
*                                                                       08050000
.CLOSE   AIF   ('&FUNC' NE 'CLOSE').GET                                 08100000
         LA    15,&IMRCLOS           FUNCTION CODE                      08150000
         AGO   .CONT                                                    08200000
*                                                                       08250000
.GET     AIF   ('&FUNC' NE 'GET').PUT                                   08300000
         LA    15,&IMRGET            FUNCTION CODE                      08350000
         AGO   .CONTBUF                                                 08400000
*                                                                       08450000
.PUT     AIF   ('&FUNC' NE 'PUT').BACK                                  08500000
         LA    15,&IMRPUT            FUNCTION CODE                      08550000
         AGO   .CONTBUF                                                 08600000
*                                                                       08650000
.BACK    AIF   ('&FUNC' NE 'BACK').KEEP                                 08700000
         LA    15,&IMRBACK           FUNCTION CODE                      08750000
         AGO   .CONTBUF                                                 08800000
*                                                                       08850000
.KEEP    AIF   ('&FUNC' NE 'KEEP').COMM                                 08900000
         LA    15,&IMRKEEP           FUNCTION CODE                      08950000
         AGO   .CONTPID                                                 09000000
*                                                                       09050000
.COMM    AIF   ('&FUNC' NE 'COMMIT').RETN                               09100000
         LA    15,&IMRCOMM           FUNCTION CODE                      09150000
         AGO   .CONTPID                                                 09200000
*                                                                       09250000
.RETN    AIF   ('&FUNC' NE 'RETURN').FORM                               09300000
         LA    15,&IMRRETN           FUNCTION CODE                      09350000
         AGO   .CONTRC                                                  09400000
*                                                                       09450000
.FORM    AIF   ('&FUNC' NE 'FORMAT').OLST                      @D31FMIS 09500000
         LA    15,&IMRFORM           FUNCTION CODE                      09550000
         AGO   .CONT                                                    09600000
*                                                                       09650000
.OLST    AIF   ('&FUNC' NE 'OPENLST').CLST                     @D31FMIS 09700000
         LA    15,&IMROLST           FUNCTION CODE             @D31FMIS 09750000
         AGO   .CONT                                           @D31FMIS 09800000
*                                                                       09850000
.CLST    AIF   ('&FUNC' NE 'CLOSELST').GLST                    @D31FMIS 09900000
         LA    15,&IMRCLST           FUNCTION CODE             @D31FMIS 09950000
         AGO   .CONT                                           @D31FMIS 10000000
*                                                                       10050000
.GLST    AIF   ('&FUNC' NE 'GETLST').FUNCER                    @D31FMIS 10100000
         LA    15,&IMRGLST           FUNCTION CODE             @D31FMIS 10150000
         AGO   .CONT                                           @D31FMIS 10200000
*                                                                       10250000
.FUNCER  ANOP                                                           10300000
         MNOTE 8,'POSITIONAL PARAMETER INVALID. MACRO IGNORED'          10350000
         MEXIT                                                          10400000
*                                                                       10450000
.CONTBUF ANOP                                                           10500000
         AIF   (T'&BUFFER NE 'O').BUFFER                                10550000
         MNOTE 8,'PARAMETER BUFFER INVALID OR MISSING'                  10600000
         MEXIT                                                          10650000
.BUFFER  AIF   ('&BUFFER'(1,1) NE '(').BUNAME       REGISTER NOTATION ? 10700000
         AIF   ('&BUFFER(1)' EQ '1').BUADDOK        - YES; REG. 1 ?     10750000
         LR    1,&BUFFER(1)          BUFFER ADDRESS                     10800000
         AGO   .BUADDOK                                                 10850000
.BUNAME  LA    1,&BUFFER             BUFFER ADDRESS                     10900000
.BUADDOK AGO   .CONT                                                    10950000
*                                                                       11000000
.CONTPID ANOP                                                           11050000
         AIF   (T'&PID NE 'O').PID                                      11100000
         MNOTE 8,'PARAMETER PID INVALID OR MISSING'                     11150000
         MEXIT                                                          11200000
.PID     AIF   ('&PID'(1,1) NE '(').PINAME         REGISTER NOTATION ?  11250000
         AIF   ('&PID(1)' EQ '1').PIDOK            - YES; REG. 1 ?      11300000
         LR    1,&PID(1)             PID                                11350000
         AGO   .PIDOK                                                   11400000
.PINAME  L     1,&PID                PID                                11450000
.PIDOK   AGO   .CONT                                                    11500000
*                                                                       11550000
.CONTRC  ANOP                                                           11600000
         AIF   (T'&RC NE 'O').RC                                        11650000
         MNOTE 8,'PARAMETER RC INVALID OR MISSING'                      11700000
         MEXIT                                                          11750000
.RC      AIF   ('&RC'(1,1) NE '(').RCNAME          REGISTER NOTATION ?  11800000
         AIF   ('&RC(1)' EQ '1').RCOK              - YES; REG. 1 ?      11850000
         LR    1,&RC(1)              RC                                 11900000
         AGO   .RCOK                                                    11950000
.RCNAME  LH    1,&RC                 RC                                 12000000
.RCOK    AGO   .CONT                                                    12050000
*                                                                       12100000
.CONT    SVC   117                                                      12150000
*                                                                       12200000
         MEND                                                           12250000
