*%GOTO DENTDCL; /*                                                      00050000
         MACRO                                                          00100000
&NAME    INLCDENT &P1,&P2,&P3,&P4,&P5,&P6,&P7,&P8                       00150000
         LCLC &PV(16),&VIN                                              00200000
         LCLA &IL,&JL,&ML,&PLMAX                                        00250000
         LCLC &LAB,&ACV(16),&DE,&UP                                     00300000
         AGO   .DENTMAC                                                 00350000
*               */                                                      00400000
*/** A000000-999999                                          @D14LDSS*/ 00450000
*/** DY35913 - 64K RLD INTEGRATED.                           @DY35913*/ 00500000
*/** AF510 DEV. LOAD PHASE INTO PFIXED SVA                   @D51KDJS*/ 00550000
*/** ESA 1.3 DEV. SUPPORT OF SECOND HIGH VLA                 @D52IDJS*/ 00575001
*/** ESA 1.3 DEV. MEMBER LOCKING                             @D52RDUT*/ 00587501
*/** ESA 2.1 GIGABYTE MEMBER PROTOTYPE                       @D61NDUT*/ 00593701
*/** ESA 2.4 MESSAGE L168 PHASE RELOADED 11/97               @D64VDMF*/ 00593801
*/**                                                                **/ 00600000
*/** START OF SPECIFICATIONS   ***************************************/ 00650000
*/**                                                                **/ 00700000
*/***31/10/97                                               @D64VDMF**/ 00750001
*/***                                                               **/ 00800000
*/***MODULE OWNER:    FOERY                                 @D64VDMF**/ 00850001
*/***                                                               **/ 00900000
*/***VERSION:         VSE/ESA 2.4                           @D64VDMF**/ 00950001
*/***                                                               **/ 01000000
*/***MODIFICATION:    00                                            **/ 01050000
*/***                                                               **/ 01100000
*/***DSECT  NAME:     INLCDENT,INLCUPHA,INLCLARG,INLCSDLE,INLCSTOH  **/ 01150000
*/***                 INLCSDLH,INLCLCK,INLCBIGM              @D61NDUT*/ 01200001
*/***                                                               **/ 01250000
*/***DESCRIPTIVE NAME:DIRECTORY ENTRY AND RELATED RECORDS           **/ 01300000
*/***                                                               **/ 01350000
         AGO .ZZZ                                                       01400000
*        LICENSED MATERIALS - PROPERTY OF IBM                           01450000
*        THIS MACRO IS "RESTRICTED MATERIALS OF IBM"                    01500000
*        5686-032 (C) COPYRIGHT IBM CORP. 1984, 1994                    01550001
*        SEE COPYRIGHT INSTRUCTIONS                                     01600000
.ZZZ     ANOP                                                           01650000
*/***                                                               **/ 01700000
*/***STATUS:          VSE/ESA                REL. 1.3        @D52RDUT*/ 01750001
*/***                                                               **/ 01800000
*/***                                                               **/ 01850000
*/***FUNCTION :       TO GENERATE THE FOLLOWING DSECTS/STUCTURES:   **/ 01900000
*/***                           DIRECTORY ENTRY                     **/ 01950000
*/***                           USER AREA FOR TYPE=PHASE            **/ 02000000
*/***                           USER AREA (RESERVED)                **/ 02050000
*/***                           USER AREA (RESERVED)                **/ 02100000
*/***                           SYSTEM DIRECTORY LIST ENTRY         **/ 02150000
*/***                           SYSTEM DIRECTORY LIST HEADER        **/ 02200000
*/***                           STOWTABLE HEADER                    **/ 02250000
*/***                                                               **/ 02300000
*/***INVOCATION:      ASM                                           **/ 02350000
*/***                 <LABEL> INLCDENT                              **/ 02400000
*/***                             <DE,>     DIRECTORY ENTRY         **/ 02450000
*/***                             <UA1,>    USER AREA FOR PHASE     **/ 02500000
*/***                             <UA2,>    RESERVED                **/ 02550000
*/***                             <UA2,>    RESERVED                **/ 02600000
*/***                             <UA3,>    LOCK VIF                **/ 02625001
*/***                             <SDL,>    SDL ENTRY               **/ 02650000
*/***                             <SDLTAB,> SDL HEADER              **/ 02700000
*/***                             <STOWL>   STOWLIST HEADER         **/ 02750000
*/***                                                               **/ 02800000
*/***                 PLS                                           **/ 02850000
*/***                 ? <LABEL:> INLCDENT (                         **/ 02900000
*/***                             <DE,>     DIRECTORY ENTRY         **/ 02950000
*/***                             <UA1,>    USER AREA FOR PHASE     **/ 03000000
*/***                             <UA2,>    RESERVED                **/ 03050000
*/***                             <UA2,>    RESERVED                **/ 03100000
*/***                             <UA3,>    LOCK VIF                **/ 03125001
*/***                             <SDL,>    SDL ENTRY               **/ 03150000
*/***                             <SDLTAB,> SDL HEADER              **/ 03200000
*/***                             <STOWL>   STOWLIST HEADER         **/ 03250000
*/***                             );                                **/ 03300000
*/***                 IF NO PARAMETERS ARE SPECIFIED, ALL DSECTS/   **/ 03350000
*/***                 PLS STRUCTURES WILL BE GENERATED.             **/ 03400000
*/***                                                               **/ 03450000
*/***ORIGINATOR:      ENTRIES ARE CREATED BY INLPSTOW               **/ 03500000
*/***                                                               **/ 03550000
*/***MODIFIED BY:      CALLER OR NL SERVICE MODIFYING C.B. FIELDS   **/ 03600000
*/***                                                               **/ 03650000
*/***                                                               **/ 03700000
*/***USED BY:          CALLER OR NL SERVICE USING C.B. READ ONLY    **/ 03750000
*/***                                                               **/ 03800000
*/***                                                               **/ 03850000
*/***NOTES                                                          **/ 03900000
*/***                                                               **/ 03950000
*/*** DEPENDENCIES:                                                 **/ 04000000
*/***                                                               **/ 04050000
*/*** RESTRICTIONS:   DIR.ENTRY LENGTH LESS THEN  CISIZE            **/ 04100000
*/***                                                               **/ 04150000
*/***EXT.REFERENCES                                                 **/ 04200000
*/***                                                               **/ 04250000
*/*** ROUTINES:       |                                             **/ 04300000
*/***                                                               **/ 04350000
*/*** DATA AREAS :    |                                             **/ 04400000
*/***                                                               **/ 04450000
*/*** CNTL.BLOCK :    |                                             **/ 04500000
*/***                                                               **/ 04550000
*/*** TABLES:         |                                             **/ 04600000
*/***                                                               **/ 04650000
*/***                                                               **/ 04700000
*/*** MACROS:         |                                             **/ 04750000
*/***                                                               **/ 04800000
*/***                                                               **/ 04850000
*/***REMARKS :                                                      **/ 04900000
*/***                                                               **/ 04950000
*/***CHANGE-ACTIVITY: A000000-999999          VSE/AF  2.1  DEVELOPM.**/ 05000000
*/***                                                               **/ 05050000
*/*** DY35913 - 64K RLD-LIMIT INTRODUCED                   @DY35913 **/ 05100000
*/*** AF510 DEV. SUPPORT OF PFIXED SVA PHASES              @D51KDJS **/ 05150000
*/*** ESA 1.3 DEV SUPPORT FOR SECOND HIGH SVA              @D52IDJS **/ 05175001
*/*** ESA 1.3 DEV MEMBER LOCKING                           @D52RDUT **/ 05187501
*/** ESA 1.4 GIGABYTE MEMBER PROTOTYPE                       @D61NDUT*/ 05193701
*/***                                                               **/ 05200000
*/********************************************************************/ 05250000
*%DENTDCL:;                                                             05300000
*%INLCDENT: MACRO      ;                                                05350000
*DCL (C1,C2,CC) FIXED;                                                  05400000
*DCL (PMAX,IMAX,I,J,JM,L) FIXED;                                        05450000
*C1=MACLMAR;                                                            05500000
*C2=MACLMAR+4 ;                                                         05550000
*CC=MACLMAR+38;                                                         05600000
*ANS('@SPACE;') SKIP COL(C1);                                           05650000
*ANS('/* LIBRARIAN - INLCDENT - 5686-032-06-C55  - VERSION 08/11/89*/') 05700000
* SKIP COL(C1);                                                         05750000
*DCL(PV (16),AZI (16),FILL,CACT)      CHARACTER;                        05800000
*AZI(1)='1AZ';                              /* DE                    */ 05850000
*AZI(2)='2BZ';                              /* UA1                   */ 05900000
*AZI(3)='3PZ';                              /* VIF  HEADER           */ 05950000
*AZI(4)='4QZ';                              /* UA3           @D52RDUT*/ 06000001
*AZI(5)='5CODEZ';                           /* SDLE                  */ 06050000
*AZI(6)='6FZ';                              /* SDLT                  */ 06100000
*AZI(7)='7L8GHIZ';                          /* STWOL                 */ 06150000
*AZI(8)='9MNZ';                             /* LARG                  */ 06200000
*                                           /*                       */ 06250000
*PMAX=8;                                    /* NO. ALLOWED SINGLE PAR*/ 06300000
*IMAX=NUMBER(MACLIST);                      /* NO. SPECIFIED PARMS   */ 06350000
*IF IMAX=0 THEN FILL='Y';                   /* DEFAULT IS ALL        */ 06400000
*          ELSE FILL='N';                   /*                       */ 06450000
*DO I=1 TO PMAX;                            /* INIT PVECTOR          */ 06500000
*PV(I)=FILL;                                /*                       */ 06550000
*END;                                       /*                       */ 06600000
*IF IMAX = 0 THEN GOTO GENALL;              /*                       */ 06650000
*DO I=1 TO IMAX ;                           /* SCAN SPECIFIED P.LIST */ 06700000
*IF MACLIST(I)='DE'    THEN PV(1)='Y';      /* DE    SPECIFIED       */ 06750000
*IF MACLIST(I)='UA1'   THEN PV(2)='Y';      /* UA1   SPECIFIED       */ 06800000
*IF MACLIST(I)='VIF'   THEN PV(3)='Y';      /* VIF   V. I . F        */ 06850000
*IF MACLIST(I)='UA3'   THEN PV(4)='Y';      /* UA3   RESERVED        */ 06900000
*IF MACLIST(I)='SDL'   THEN PV(5)='Y';      /* SDL   SPECIFIED       */ 06950000
*IF MACLIST(I)='SDLT'  THEN PV(6)='Y';      /* SDLT  SPECIFIED       */ 07000000
*IF MACLIST(I)='STOWL' THEN PV(7)='Y';      /* STOWL SPECIFIED       */ 07050000
*IF MACLIST(I)='ARG'   THEN PV(8)='Y';      /* ARG   SPECIFIED       */ 07100000
*END;                                       /*                       */ 07150000
*GENALL:;                                                               07200000
*JM=22;                                                                 07250000
*DO I=1 TO PMAX;                            /* PERFORM ACTIONS       */ 07300000
*CACT='';                                   /*                       */ 07350000
*FILL=PV(I);                                                            07400000
*DO J=1 TO JM  WHILE ((FILL  = 'Y')                                     07450000
*                        & (CACT ¬= 'Z') );                             07500000
*CACT = AZI(I,J:J);                       /*                       */   07550000
*IF CACT = '1' THEN DO;                     /* DENT                  */ 07600000
*DE=' DENT';                                                            07650000
*L=1;                                                                   07700000
*GOTO MRET;                                                             07750000
*END;                                                                   07800000
*IF CACT = '2' THEN DO;                     /* UPHA                  */ 07850000
*UP=' UPHA';                                                            07900000
*L=1;                                                                   07950000
*GOTO MRET;                                                             08000000
*END;                                                                   08050000
*IF CACT = '3' THEN DO;                     /* RESERVED              */ 08100000
*                                                                       08150000
*UP=' VIFD';                                                            08200000
*L=1;                                                                   08250000
*GOTO MRET;                                                             08300000
*END;                                                                   08350000
*IF CACT = '4' THEN DO;                     /* RESERVED              */ 08400000
*UP=' LCKV';                               /* LOCK VIF       @D52RDUT*/ 08450001
*L=1;                                                                   08500000
*GOTO MRET;                                                             08550000
*END;                                                                   08600000
*IF CACT = '5' THEN DO;                     /* SDLE IN DIR.ENTRY     */ 08650000
*DE=' SDLE';                                                            08700000
*UP=' SDLE';                                                            08750000
*L=1;                                                                   08800000
*GOTO MRET;                                                             08850000
*END;                                                                   08900000
*IF CACT = '6' THEN DO;                     /* SDLE IN UA1 ENTRY     */ 08950000
*DE=' SDLH';                                                            09000000
*L=1;                                                                   09050000
*GOTO MRET;                                                             09100000
*END;                                                                   09150000
*IF CACT = '7' THEN DO;                     /* STOH FOR STOW LIST HD.*/ 09200000
*DE=' STOH';                                                            09250000
*L=1;                                                                   09300000
*GOTO MRET;                                                             09350000
*END;                                                                   09400000
*IF CACT = '8' THEN DO;                     /* STOL FOR STOW LIST    */ 09450000
*DE=' STOL';                                                            09500000
*UP=' STOL';                                                            09550000
*L=1;                                                                   09600000
*GOTO MRET;                                                             09650000
*END;                                                                   09700000
*IF CACT = '9' THEN DO;                     /* LARG                  */ 09750000
*DE=' LARG';                                                            09800000
*L=1;                                                                   09850000
*GOTO MRET;                                                             09900000
*END;                                                                   09950000
*IF CACT = 'A' THEN GOTO LABA;              /* DIR.ENTRY SEGMENT     */ 10000000
*IF CACT = 'B' THEN GOTO LABB;              /* UA1 SEGMENT           */ 10050000
*IF CACT = 'C' THEN GOTO LABC;              /* SDLE DIR.ENTRY SEGM.  */ 10100000
*IF CACT = 'D' THEN GOTO LABD;              /* SDLE UA1 SEGM.        */ 10150000
*IF CACT = 'E' THEN GOTO LABE;              /* SDLE PROPER SEGMENT   */ 10200000
*IF CACT = 'F' THEN GOTO LABF;              /* SDL HEADER SEGMENT    */ 10250000
*IF CACT = 'G' THEN GOTO LABG;              /* STOW LIST ENTRY PREFIX*/ 10300000
*IF CACT = 'H' THEN DO;                     /*  GENERAL D.E. SEGM.   */ 10350000
*                   L=1;                                                10400000
*                   GOTO LABH;                                          10450000
*                   END;                                                10500000
*IF CACT = 'I' THEN DO;                     /*  APPENDIX             */ 10550000
*                   L=1;                                                10600000
*                   GOTO LABI;                                          10650000
*                   END;                                                10700000
*IF CACT = 'L' THEN GOTO LABL;              /* STOWL HEADER          */ 10750000
*IF CACT = 'M' THEN GOTO LABM;              /* ARGUMENT  1TH         */ 10800000
*IF CACT = 'N' THEN GOTO LABN;              /* ARGUMENT  2TH         */ 10850000
*IF CACT = 'O' THEN GOTO LABO;              /* SDLE FILLER           */ 10900000
*IF CACT = 'P' THEN GOTO LABP;              /* VIF HEADER            */ 10950000
*IF CACT = 'Q' THEN GOTO LABP;              /* LOCKVIF       @D52RDUT*/ 10975001
*IF CACT = 'Z' THEN GOTO MRET;              /* EXIT ROW              */ 11000000
*GOTO MRET;                                 /*                       */ 11050000
*                                           /*                       */ 11100000
*                                           /*                       */ 11150000
*LABA:;                                     /* FOR DE                */ 11200000
*ANS('DECLARE') COL(C1) SKIP;                                           11212501
*ANS('DENTLGT BIN FIXED(15) CONSTANT(255);'   ) SKIP COL(C2+L);         11225001
*                        ANS('/* MAX. LENGTH OF DE @KX50256*/')COL(CC); 11237501
*ANS('DECLARE') COL(C1) SKIP;                                           11250000
*ANS( CHAR(L)||' INLC'||DE(2:5)||' BASED (*),') SKIP COL(C2+L);         11300000
*                        ANS('/* DIRECTORY ENTRY           */')COL(CC); 11350000
*GOTO LABAA;                                                            11400000
*LABC:;                                     /* FOR SDLE              */ 11450000
*ANS('DECLARE') COL(C1) SKIP;                                           11500000
*ANS( CHAR(L)||' INLC'||DE(2:5)||' (*) BASED (*),') SKIP COL(C2+L);     11550000
*                        ANS('/* SYSTEM DIRECTORY ENTRY    */')COL(CC); 11600000
*LABAA:;                                                                11650000
*ANS(  CHAR(L+1)||DE||'SEGM ,') SKIP COL(C2+L+1);                       11700000
*                        ANS('/* D.E. FIRST SEGMENT        */')COL(CC); 11750000
*LABH:;                                     /* FOR STOWL            */  11800000
*LABN:;                                     /* FOR ARGUMENT         */  11850000
*ANS( CHAR(L+2)||DE||'NAM CHAR (8),') SKIP COL(C2+L+2);                 11900000
*                        ANS('/* MEMBER NAME               */')COL(CC); 11950000
*ANS( CHAR(L+2)||DE||'GEN CHAR (1),') SKIP COL(C2+L+2);                 12000000
*                        ANS('/* RESERVED FOR GENERATION G.*/')COL(CC); 12050000
*IF  CACT='H' THEN L=L-1;                   /* IF STOWL             */  12100000
*IF  CACT='N' THEN L=L-1;                   /* IF ARGUMENT          */  12150000
*ANS( CHAR(L+2)||DE||'DEF1 CHAR(1),') SKIP COL(C2+L+2);                 12200000
*                        ANS('/* ATTRIBUTES FOR DIR.ENTRY  */')COL(CC); 12250000
*ANS( CHAR(L+3)||' *     BIT(2),') SKIP COL(C2+L+3);                    12300000
*                        ANS('/* RESERVED                  */')COL(CC); 12350000
*ANS( CHAR(L+3)||DE||'EDIR BIT(1),') SKIP COL(C2+L+3);                  12400000
*                        ANS('/* TYPE OF ENTRY = DIRECTORY */')COL(CC); 12450000
*IF CACT = 'N' THEN DO;                     /* FOR ARGUMENT         */  12500000
*ANS( CHAR(L+3)||' *     BIT(5),') SKIP COL(C2+L+3);                    12550000
*                        ANS('/* RESERVED                  */')COL(CC); 12600000
*ANS( CHAR(L+2)||DE||'LOCK CHAR(1),') SKIP COL(C2+L+2);                 12613601
*                        ANS('/* RESERVED          @D52RDUT*/')COL(CC); 12627201
*ANS( CHAR(L+3)||DE||'DLCK BIT(1) ,') SKIP COL(C2+L+3);                 12640801
*                        ANS('/* DIRECTORY LOCKED  @D52RDUT*/')COL(CC); 12654401
*ANS( CHAR(L+3)||DE||'DLID BIT(1) ,') SKIP COL(C2+L+3);                 12658901
*                        ANS('/* LOCKID EQUAL      @D52RDUT*/')COL(CC); 12663401
*ANS( CHAR(L+3)||DE||'SLCK BIT(1) ,') SKIP COL(C2+L+3);                 12668001
*                        ANS('/* SUPERVISOR LOCKED @D52RDUT*/')COL(CC); 12681601
*ANS( CHAR(L+3)||' *     BIT(5),') SKIP COL(C2+L+3);                    12695201
*                        ANS('/* RESERVED          @D52RDUT*/')COL(CC); 12708801
*ANS( CHAR(L+2)||' *     CHAR(1);') SKIP COL(C2+L+2);                   12722401
*                        ANS('/* RESERVED          @D52RDUT*/')COL(CC); 12736001
*GOTO MRET;                                 /*                      */  12750000
*END;                                       /*                      */  12800000
*ANS( CHAR(L+3)||' *     BIT(5),') SKIP COL(C2+L+3);                    12850000
*                        ANS('/* RESERVED                  */')COL(CC); 12900000
*ANS( CHAR(L+2)||DE||'PRBA CHAR (6)BDY(WORD,3),') SKIP COL(C2+L+2);     12950000
*                        ANS('/* MEMBER BEGIN PRBA         */')COL(CC); 13000000
*ANS(CHAR(L+3)||DE||'RBAO FIXED(16)BDY(WORD,3),') SKIP COL(C2+L+3);     13050000
*                        ANS('/*  OFFSET IN LB             */')COL(CC); 13100000
*ANS(CHAR(L+3)||DE||'RBAP FIXED(32)BDY(WORD),') SKIP COL(C2+L+3);       13150000
*                        ANS('/*  REL.BLOCK ADDRESS        */')COL(CC); 13200000
*IF  CACT='C' THEN GOTO LABC02;             /* SKIP FOR SDLE        */  13250000
*ANS( CHAR(L+2)||DE||'VIFL FIXED(15),') SKIP COL(C2+L+2);               13300000
*                        ANS('/* LENGTH OF DE COMMON SEGMNT*/')COL(CC); 13350000
*ANS( CHAR(L+2)||DE||'LSTA CHAR (6)BDY(WORD,3) ,') SKIP COL(C2+L+2);    13400000
*                        ANS('/* PRBA OF LAST LB OF MEMBER */')COL(CC); 13450000
*ANS(CHAR(L+3)||DE||'LSTO FIXED(16)BDY(WORD,3),') SKIP COL(C2+L+3);     13500000
*                        ANS('/*  OFFSET IN LB             */')COL(CC); 13550000
*ANS(CHAR(L+3)||DE||'LSTP FIXED(32)BDY(WORD),') SKIP COL(C2+L+3);       13600000
*                        ANS('/*  REL.BLOCK ADDRESS        */')COL(CC); 13650000
*ANS( CHAR(L+2)||DE||'DEF2 BIT (8),') SKIP COL(C2+L+2);                 13700000
*                        ANS('/* FLAGS                     */')COL(CC); 13750000
*ANS(CHAR(L+3)||DE||'MSH1 BIT(1) ,') SKIP COL(C2+L+3);                  13800000
*                       ANS('/* MODULE UNDER MSHP CONT.   */') COL(CC); 13850000
*ANS(CHAR(L+3)||DE||'MSH2 BIT(1) ,') SKIP COL(C2+L+3);                  13900000
*                       ANS('/* CHANGED WITH MSHP BYPASS  */') COL(CC); 13950000
*ANS(CHAR(L+3)||DE||'API  BIT(1) ,') SKIP COL(C2+L+3);                  13980001
*                       ANS('/* BUILD WITH API    @D51VDJS*/') COL(CC); 14010001
*ANS(CHAR(L+3)||' * BIT(1)          ,') SKIP COL(C2+L+3);               14040001
*                       ANS('/* RESERVED          @D51VDJS*/') COL(CC); 14070001
*ANS(CHAR(L+3)||DE||'RTF BIT(1)   ,') SKIP COL(C2+L+3);                 14100000
*                       ANS('/* REC.TYPE=FIXED            */') COL(CC); 14150000
*ANS(CHAR(L+3)||DE||'RTU BIT(1)   ,') SKIP COL(C2+L+3);                 14200000
*                       ANS('/* REC.TYPE=UNDEFINED        */') COL(CC); 14250000
*ANS(CHAR(L+3)||DE||'RTV BIT(1)   ,') SKIP COL(C2+L+3);                 14300000
*                       ANS('/* REC.TYPE=VARIABLE         */') COL(CC); 14350000
*ANS(CHAR(L+3)||DE||'SIPT BIT(1) ,') SKIP COL(C2+L+3);                  14400000
*                       ANS('/* SYSIPT DATA IN MEMBER     */') COL(CC); 14450000
*ANS( CHAR(L+2)||DE||'DEF3 BIT (8),') SKIP COL(C2+L+2);                 14500000
*                        ANS('/*                           */')COL(CC); 14550000
*ANS(CHAR(L+3)||DE||'VIF BIT(1)   ,') SKIP COL(C2+L+3);                 14600000
*                       ANS('/* ONE OR MORE VIFS IN DE    */') COL(CC); 14650000
*ANS(CHAR(L+3)||DE||'CMPR BIT(1)  ,') SKIP COL(C2+L+3);                 14700000
*                       ANS('/* DATA IN COMPRESSED FORM   */') COL(CC); 14750000
*ANS( CHAR(L+3)||' *    BIT (6),') SKIP COL(C2+L+3);                    14800000
*                        ANS('/* RESERVED                  */')COL(CC); 14850000
*ANS( CHAR(L+2)||DE||'MBLK FIXED (15),') SKIP COL(C2+L+2);              14900000
*                        ANS('/* NO. OF LBS FOR MEMBER     */')COL(CC); 14950000
*ANS( CHAR(L+2)||DE||'NORL FIXED(31),') SKIP COL(C2+L+2);               15000000
*                       ANS('/* NO OF LOGICAL RECORDS     */') COL(CC); 15050000
*ANS( CHAR(L+2)||DE||'RLEN FIXED(31),') SKIP COL(C2+L+2);               15100000
*                       ANS('/* LOGICAL REC. LENGTH       */') COL(CC); 15150000
*LABC02:                                                                15200000
*ANS( CHAR(L+2)||DE||'CONT FIXED (15),') SKIP COL(C2+L+2);              15250000
*                        ANS('/* CONTIGUITY COUNTER        */')COL(CC); 15300000
*IF CACT='C' THEN GOTO MRET;                /*  IF SLDE              */ 15350000
*IF CACT='H' THEN L=L+1;                    /*  IF STOWL             */ 15400000
*ANS( CHAR(L+1)||DE||'DORI CHAR(10),') SKIP COL(C2+L+1);                15450000
*                        ANS('/* TIME STAMP ORIGINATION    */')COL(CC); 15500000
*ANS( CHAR(L+1)||DE||'DUPD CHAR(10),') SKIP COL(C2+L+1);                15550000
*                        ANS('/* TIME STAMP LAST UPDATE    */')COL(CC); 15600000
*ANS( CHAR(L+1)||DE||'VEMO CHAR (2),') SKIP COL(C2+L+1);                15650000
*                        ANS('/*  VERSION MODIFICATION     */')COL(CC); 15700000
*ANS( CHAR(L+1)||DE||'EODA CHAR (2),') SKIP COL(C2+L+1);                15750000
*                        ANS('/*  SYSIPT END OF DATA       */')COL(CC); 15800000
*ANS( CHAR(L+1)||' *   CHAR(2),') SKIP COL(C2+L+1);                     15850000
*                        ANS('/* RESERVED                  */')COL(CC); 15900000
*ANS( CHAR(L+1)||DE||'IDEN  CHAR(4),') SKIP COL(C2+L+1);                15950000
*                        ANS('/* RESERVED                  */')COL(CC); 16000000
*ANS( CHAR(L+1)||' *   CHAR(4);') SKIP COL(C2+L+1);                     16050000
*                        ANS('/* RESERVED                  */')COL(CC); 16100000
*GOTO MRET;                                 /*                       */ 16150000
*                                           /*                       */ 16200000
*                                           /*                       */ 16250000
*LABB:;                                     /* FOR UA1               */ 16300000
*LABP:;                                     /* FOR VIF HEADER        */ 16350000
*ANS('DECLARE') COL(C1) SKIP;                                           16400000
*                       ANS('/* VIF                       */') COL(CC); 16450001
*ANS(  CHAR(L)||'  INLC'||UP(2:5)||' BASED (*),') SKIP COL(C2+L);       16500000
*                       ANS('/*                           */') COL(CC); 16550000
*LABK:;                                     /* FOR SDLE              */ 16600000
*ANS( CHAR(L+1)||UP||'ELEN FIXED(15),') SKIP COL(C2+L+1);               16650000
*                       ANS('/* LENGTH OF V.I.F.          */') COL(CC); 16700000
*ANS( CHAR(L+1)||UP||'EATR BIT  (16),') SKIP COL(C2+L+1);               16750000
*                       ANS('/* RESERVED                  */') COL(CC); 16800000
*ANS( CHAR(L+2)||UP||'VIF BIT(1),') SKIP COL(C2+L+2);                   16850000
*                      ANS('/* VIF FOLLOWS               */') COL(CC);  16900000
*IF CACT='P' THEN DO;                       /*  IF VIF HEADER        */ 16950000
*ANS( CHAR(L+1)||UP||'EID CHAR(4);') SKIP COL(C2+L+2);                  17000000
*                      ANS('/* V.I.F. IDENTIFIER         */') COL(CC);  17050000
*GOTO MRET;                                 /*                       */ 17100000
*END;                                                                   17150000
*ELSE                                                                   17200000
*ANS( CHAR(L+1)||UP||'EID CHAR(4),') SKIP COL(C2+L+2);                  17250000