         MACRO                                                          00050000
&NAME    INVENTRY &FUNC=EQU,&PARML=,&TYPE=                              00100000
         GBLB  &IJBIVMQ           INVENTRY EQU INDICATION               00150000
         GBLB  &IJBIVMD           INVENTRY DSECT INDICATION             00200000
         GBLB  &IJBIVMS           SECONDARY INVOCATION OF INVENTRY      00250000
         LCLC  &LABEL             LABEL FOR BRANCH INSTRUCTION          00300000
         LCLC  &LAB1              LABEL FOR BRANCH INSTRUCTION          00350000
         LCLC  &LAB2              LABEL FOR BRANCH INSTRUCTION          00400000
         LCLC  &BASE              LABEL FOR BASE ADDRESS                00450000
         LCLC  &W1                WORK REGISTER                         00500000
         LCLC  &W2                BASE REGISTER                         00550000
         LCLC  &DSTYP             DSECT TYPE                            00600000
         LCLC  &EQTYP             EQUATE TYPE                           00650000
.*                                FALSE = NO EQUATES AVAILABLE          00700000
.*                                TRUE  = EQUATES AVAILABLE             00750000
.*       IBM DISK OPERATING SYSTEM                            *         00800000
         AIF   (&IJBIVMS).ZZZ                                           00850000
*        SUPERVISOR - INVENTRY - 5686-032-06                  *@D52VDIS 00900052
         AGO   .ZZZ                                           *         00950000
*        LICENSED MATERIALS - PROPERTY OF IBM                 *         01000000
*        THIS MACRO IS "RESTRICTED MATERIALS OF IBM"          *         01050000
*        5686-032 (C) COPYRIGHT IBM CORP. 1989, 1990          *         01100000
*        SEE COPYRIGHT INSTRUCTIONS                           *         01150000
.ZZZ     ANOP                                                 *         01200000
.**** START OF SPECIFICATIONS ***************************************** 01250000
.*                                                                      01300000
.*01* MODULE-TYPE = MACRO                                               01350000
.*                                                                      01400000
.*01* DESCRIPTIVE NAME = MIGRATION AID INTERFACE MACRO TO               01450000
.*                       GET HOOK INLINE CODE, HOOK EQUATES,            01500000
.*                       HOOK DSECTS AND INLINE CODE FOR THE            01550000
.*                       MIGRATION AID SVC.                             01600000
.*                                                                      01650000
.*  STATUS           =  NEW MACRO - FIRST RELEASE SP 4.1.1              01700000
.*                                                                      01750000
.*  FUNCTION         =  FUNC=EQU     - TO GET EQUATES FOR THE           01800000
.*                                     THE FUNCTION VALUES OF HOOKS     01850000
.*                                     YOU HAVE TO SPECIFIY ONE OF      01900000
.*                                     THE FOLLOWING TYPE VALUE:        01950000
.*                                     TYPE=ALL - FOR ALL EQUATES       02000000
.*                                     TYPE=SUP - FOR SUPERVISOR EQU.   02050000
.*                                     TYPE=JCL - FOR JCL EQUATES       02100000
.*                                     TYPE=VSM - FOR VSAM EQUATES      02150000
.*                                     TYPE=BAM - FOR BAM EQUATES       02200000
.*                                     TYPE=PWR - FOR POWER EQUATES     02250000
.*                                     TYPE=LIB - FOR LIBRARIAN EQU.    02300000
.*                   =  FUNC=DSECT   - TO GET DSECTS FOR THE            02350000
.*                                     THE PARAMETER LISTS OF HOOKS     02400000
.*                                     VALID TYPE VALUES ARE:           02450000
.*                                     TYPE=ALL - FOR ALL DSECTS        02500000
.*                                     TYPE=JCL - FOR JCL DSECT         02550000
.*                                     TYPE=VSM - FOR VSAM DSECT        02600000
.*                                     TYPE=BAM - FOR BAM DSECT         02650000
.*                                     TYPE=PWR - FOR POWER DSECT       02700000
.*                                     TYPE=LIB - FOR LIBRARIAN DSECT   02750000
.*                                     TYPE=CIC - CICS MONITOR@D31FMIS  02800000
.*                      FUNC=INVENT  - TO GET INLINE CODE FOR           02850000
.*                                     MONITOR ACTIVATION,              02900000
.*                                     DEACTIVATION AND DISPLAY,        02950000
.*                                     WHERE PARML IS MANDATORY         03000000
.*                      FUNC=MONSTATE - TO GET INLINE CODE FOR          03050000
.*                                     MIGRATION AID SVC, WHICH         03100000
.*                                     RETURNS, IF MONITORING           03150000
.*                                     FOR THE CURRENT PARTITION        03200000
.*                                     IS ACTIVE                        03250000
.*                      FUNC=...     - TO GET INLINE CODE FOR           03300000
.*                                     FOR HOOKS                        03350000
.*  NOTES            =  NONE                                            03400000
.*  DEPENDENCIES     =  VSE/SP COMPONENTS, WHERE HOOKS ARE INSERTED     03450000
.*  RESTRICTIONS     =  NONE                                            03500000
.*  REGISTER CONVENT.=  REGISTER  0 = RETURN CODE                       03550000
.*                                    0 = IAF   ACTIVE                  03600000
.*                                    8 = IAF   INACTIVE                03650000
.*                   =  REGISTER  1 = PARAMETER LIST (OPTIONAL)         03700000
.*                      REGISTER 15 = FUNCTION CODE                     03750000
.*                      SPECIAL CONVENTIONS FOR SUPERVISOR HOOKS        03800000
.*  PATCH LABEL      =  NONE                                            03850000
.*  MACRO TYPE       =  ASSEMBLER                                       03900000
.*  PROCESSOR        =  ASM                                             03950000
.*  MACRO SIZE       =  SEE OUTPUT                                      04000000
.*  ATTRIBUTES       =  MAPPING EQU AND/OR INLINE CODE                  04050000
.*  ENTRY POINT      =  NONE                                            04100000
.*  PURPOSE          =  SEE FUNCTION                                    04150000
.*  LINKAGE          =  NONE                                            04200000
.*  CALLER           =  VSE/SP COMPONENTS, IAF   ROUTINES               04250000
.*  INPUT            =  DEPENDENT ON FUNCTION                           04300000
.*  OUTPUT           =  EQUATES, DSECTS OR INLINE CODE OF IAF   HOOKS   04350000
.*                                                                      04400000
.*  EXIT NORMAL      =  MACRO EXPANSION                                 04450000
.*                                                                      04500000
.*  EXIT ERROR       =  MACRO EXPANSION IGNORED                         04550000
.*                                                                      04600000
.*  EXTERNAL REFEREN.=  SUPERVISOR HOOKS ONLY: SUPERVISOR AREAS         04650000
.*  ROUTINES         =  NONE                                            04700000
.*  DATA AREAS       =  SUPERVISOR HOOKS ONLY: SUPERVISOR AREAS         04750000
.*  CONTROL BLOCKS   =  NONE                                            04800000
.*  TABLES           =  NONE                                            04850000
.*  MACROS           =  NONE                                            04900000
.*  CHANGE ACTIVITIES=  NEW MACRO   FIRST RELEASE SP 4.1.1     @D31ZDIS 04950000
.*                      VSIC  RELEASE 2                        @D31FMIS 05000000
.*                      MORE PARTITION SUPPORT                 @D51IDIS 05050000
*                       REMOVE ENTSVC HOOK FROM MAIN PATH      @D52VDIS 05075052
.*  MODIFIED REGISTER=  DEPENDENT ON FUNCTION                           05100000
.*                                                                      05150000
.** END OF SPECICATIONS *********************************************** 05200000
.*                                                                      05250000
         AIF (T'&FUNC EQ 'O').FUNCERR   FUNCTION VALUE SPECIFIED ?      05300000
         AIF ('&FUNC' NE 'EQU').NOEQU   FUNC VALUE NOT EQU ?            05350000
         AIF (T'&TYPE EQ 'O').TYPEERR   TYPE VALUE SPECIFIED ?          05400000
         AIF (('&TYPE' NE 'ALL') AND ('&TYPE' NE 'SUP')).NOSV           05450000
**********************************************************************  05500000
*      EQUATE VALUES FOR SUPERVISOR HOOKS                               05550000
**********************************************************************  05600000
&IJBIVMQ SETB  1            INDICATE FUNC=EQU PROCESSED                 05650000
* MONSTATE EQU 0            FUNCTION CODE 0 RESERVED FOR MONSTATE       05700000
* SVNUC BY FLAG TCBHKSVC    SUPERVISOR HOOK: ENTSVC                     05750000
* SVPCK BY FLAG TCBHKPCK    SUPERVISOR HOOK: ENTPCK                     05800000
* SVAP                      SUPERVISOR HOOK: SGAP                       05850000
SVCHKPT  EQU   31           SUPERVISOR HOOK: CHKPT                      05900000
SVLOAD   EQU   64           SUPERVISOR HOOK: FETCH, LOAD, CDLOAD        05950000
SVEOT    EQU   65           SUPERVISOR HOOK: SGAP                       06000000
**********************************************************************  06050000
*      INTERNAL EQUATE VALUES FOR IVMENTRY BALR INTERFACE               06100000
**********************************************************************  06150000
SVATCH   EQU   1            SUPERVISOR HOOK: ATTACH                     06200000
SVCHAP   EQU   2            SUPERVISOR HOOK: CHAP                       06250000
SVCMRG   EQU   3            SUPERVISOR HOOK: COMREG                     06300000
SVDEQ    EQU   4            SUPERVISOR HOOK: DEQ                        06350000
SVDTCH   EQU   5            SUPERVISOR HOOK: DETACH                     06400000
SVENQ    EQU   6            SUPERVISOR HOOK: ENQ                        06450000
SVEXTR   EQU   7            SUPERVISOR HOOK: EXTRACT                    06500000
SVFCPG   EQU   8            SUPERVISOR HOOK: FCPGOUT                    06550000
SVGETD   EQU   9            SUPERVISOR HOOK: GETDADR                    06600000
SVMVCM   EQU   10           SUPERVISOR HOOK: MVCOM                      06650000
SVLOCK   EQU   11           SUPERVISOR HOOK: LOCK/UNLOCK                06700000
SVPAGIN  EQU   12           SUPERVISOR HOOK: PAGEIN                     06750000
SVPFIX   EQU   13           SUPERVISOR HOOK: PFIX                       06800000
SVPFRE   EQU   14           SUPERVISOR HOOK: PFREE                      06850000
SVRPAG   EQU   15           SUPERVISOR HOOK: RELPAG                     06900000
SVRMOD   EQU   16           SUPERVISOR HOOK: RUNMODE                    06950000
SVSPFA   EQU   17           SUPERVISOR HOOK: SETPFA                     07000000
SVSTXT   EQU   18           SUPERVISOR HOOK: STXIT                      07050000
SVSUBS   EQU   19           SUPERVISOR HOOK: SUBSID                     07100000
SVTPIN   EQU   20           SUPERVISOR HOOK: TPIN                       07150000
SVTPOT   EQU   21           SUPERVISOR HOOK: TPOUT                      07200000
SVCPCL   EQU   22           SUPERVISOR HOOK: CPCLOSE                    07250000
SVXECB   EQU   23           SUPERVISOR HOOK: XECB                       07300000
SVXPCC   EQU   24           SUPERVISOR HOOK: XPCC                       07350000
SVXPST   EQU   25           SUPERVISOR HOOK: XPOST                      07400000
SVXWAT   EQU   26           SUPERVISOR HOOK: XWAIT                      07450000
SV0CON   EQU   27           SUPERVISOR HOOK: SVC 0 0N CONSOLE           07500000
SV1213   EQU   28           SUPERVISOR HOOK: SVC 12 AND 13              07550000
SVSECK   EQU   29           SUPERVISOR HOOK: SECHECK                    07600000
SVEXIT   EQU   30           SUPERVISOR HOOK: EXIT AB,IT,OC,PC,TT        07650000
.NOSV    ANOP                                                           07700000
         AIF (('&TYPE' NE 'ALL') AND ('&TYPE' NE 'JCL')).NOJC           07750000
**********************************************************************  07800000
*      EQUATE VALUES FOR JOB CONTROL HOOKS                              07850000
**********************************************************************  07900000
&IJBIVMQ SETB  1            INDICATE FUNC=EQU PROCESSED                 07950000
JCEOJ    EQU   66           JOB CONTROL HOOK: EOJ                       08000000
JCJOB    EQU   67           JOB CONTROL HOOK: JOB    STATEMENT          08050000
JCDATE   EQU   32           JOB CONTROL HOOK: DATE   STATEMENT          08100000
JCID     EQU   33           JOB CONTROL HOOK: ID     STATEMENT          08150000
JCMTC    EQU   34           JOB CONTROL HOOK: MTC    STATEMENT          08200000
JCOPTN   EQU   35           JOB CONTROL HOOK: OPTION STATEMENT          08250000
JCPAUSE  EQU   36           JOB CONTROL HOOK: PAUSE  STATEMENT          08300000
JCPWR    EQU   37           JOB CONTROL HOOK: PWR    STATEMENT          08350000
JCUPSI   EQU   38           JOB CONTROL HOOK: UPSI   STATEMENT          08400000
JCZONE   EQU   39           JOB CONTROL HOOK: ZONE   STATEMENT          08450000
JCEXIT   EQU   40           JOB CONTROL HOOK: JCL EXIT MODIFICATION     08500000
JCCDJCL  EQU   41           JOB CONTROL HOOK: CONDITIONAL JCL           08550000
JCRDIPT  EQU   42           JOB CONTROL HOOK: SYSRDR NOT EQUAL SYSIPT   08600000
JCPARM   EQU   43           JOB CONTROL HOOK: PARAMETERIZED JCL         08650000
JCOVERW  EQU   44           JOB CONTROL HOOK: PROC. WITH OVERRIDE       08700000
JCPCDAT  EQU   47           JOB CONTROL HOOK: PROC. WITH DATA=YES       08750000
JCEXPHA  EQU   70           JOB CONTROL HOOK: EXEC PHASE NAME           08800000
JCEXPRC  EQU   71           JOB CONTROL HOOK: EXEC PROC. NAME           08850000
JCPREND  EQU   68           JOB CONTROL HOOK: END OF PROCEDURE          08900000
.NOJC    ANOP                                                           08950000
         AIF (('&TYPE' NE 'ALL') AND ('&TYPE' NE 'VSM')).NOVSM          09000000
**********************************************************************  09050000
*      EQUATE VALUES FOR VSAM HOOKS                                     09100000
**********************************************************************  09150000
&IJBIVMQ SETB  1            INDICATE FUNC=EQU PROCESSED                 09200000
VSMOPN1  EQU   80           VSAM HOOK: VSAM OPEN: SINGLE CLUSTER        09250000
VSMOPN2  EQU   81           VSAM HOOK: VSAM OPEN: PATH ENTRY            09300000
VSMOPN3  EQU   82           VSAM HOOK: VSAM OPEN: ALTERNATE INDEX       09350000
VSMOPN4  EQU   83           VSAM HOOK: VSAM OPEN: BASE CLUSTER          09400000
VSMOPN5  EQU   84           VSAM HOOK: VSAM OPEN: UPGRATE SET INFO.     09450000
VSMCAT   EQU   85           VSAM HOOK: VSAM CATALOG                     09500000
VSMOPXT  EQU   96           VSAM HOOK: VSAM OPEN END           @D31FMIS 09550000
.NOVSM   ANOP                                                           09600000
         AIF (('&TYPE' NE 'ALL') AND ('&TYPE' NE 'BAM')).NOBAM          09650000
**********************************************************************  09700000
*      EQUATE VALUES FOR BAM HOOKS                                      09750000
**********************************************************************  09800000
&IJBIVMQ SETB  1            INDICATE FUNC=EQU PROCESSED                 09850000
BAMFCB   EQU   69           BAM HOOK: $$BATTF0 (LOAD FCB)               09900000
BAMOPND  EQU   86           BAM HOOK: BAM OPEN (DISK: DTFSD/PH/DA)      09950000
BAMOPNI  EQU   87           BAM HOOK: BAM OPEN (ISAM)                   10000000
BAMOPNU  EQU   88           BAM HOOK: BAM OPEN (UNDEF. ACCESS METH.,    10050000
*                                      DTFCP/DI/DU, UNLABELLED/         10100000
*                                      NONSTANDARD TAPE)                10150000
BAMOPNT  EQU   89           BAM HOOK: BAM OPEN (TAPE)                   10200000
BAMOPNC  EQU   95           BAM HOOK: CLOSE                             10250000
.NOBAM   ANOP                                                           10300000
         AIF (('&TYPE' NE 'ALL') AND ('&TYPE' NE 'PWR')).NOPWR          10350000
**********************************************************************  10400000
*      EQUATE VALUES FOR POWER HOOKS                                    10450000
**********************************************************************  10500000
&IJBIVMQ SETB  1            INDICATE FUNC=EQU PROCESSED                 10550000
PWRSLI   EQU   72           POWER HOOK: SLI POWER JECL                  10600000
PWRJOB   EQU   73           POWER HOOK: JOB POWER JECL                  10650000
PWREOJ   EQU   74           POWER HOOK: EOJ POWER JECL                  10700000
PWRPEND  EQU   75           POWER HOOK: PEND POWER COMMAND              10750000
PWRSEG   EQU   48           POWER HOOK: OUTPUT SEGMENTATION             10800000
PWRDAT   EQU   49           POWER HOOK: DATA POWER JECL                 10850000
.NOPWR   ANOP                                                           10900000
         AIF (('&TYPE' NE 'ALL') AND ('&TYPE' NE 'LIB')).NOLIB          10950000
**********************************************************************  11000000
*      EQUATE VALUES FOR LIBRARIAN HOOKS                                11050000
**********************************************************************  11100000
&IJBIVMQ SETB  1            INDICATE FUNC=EQU PROCESSED                 11150000
LIBOPEN  EQU   90           LIBRARIAN HOOK: OPEN LIBRARY                11200000
LIBDTFSL EQU   91           LIBRARIAN HOOK: DTFSL MACRO                 11250000
LIBLNKED EQU   92           LIBRARIAN HOOK: LINKAGE EDITOR              11300000
LIBFAIL  EQU   93           LIBRARIAN HOOK: EXTENT PROCESSING FAILED    11350000
LIBEND   EQU   94           LIBRARIAN HOOK: END OF EXTENT PROCESS       11400000
.NOLIB   ANOP                                                           11450000
         AIF (('&TYPE' NE 'ALL') AND ('&TYPE' NE 'CIC')).NOC1  @D31FMIS 11500000
***************************************************************@D31FMIS 11550000
*      EQUATE VALUES FOR CICS MONITORING HOOKS                 @D31FMIS 11600000
***************************************************************@D31FMIS 11650000
&IJBIVMQ SETB  1            INDICATE FUNC=EQU PROCESSED        @D31FMIS 11700000
CICFNAP  EQU   97           CICS MONITORING HOOK               @D31FMIS 11750000
.NOC1    ANOP                                                  @D31FMIS 11800000
         AIF (NOT &IJBIVMQ).TYPEER1 NO EQUATES GENERATED ?              11850000
         MEXIT              LEAVE MACRO                                 11900000
.*********************************************************************  11950000
.*      OTHER FUNCTION VALUES THAN EQU                                  12000000
.*********************************************************************  12050000
.NOEQU   ANOP                                                           12100000
         AIF ('&FUNC' NE 'DSECT').NODSECT   FUNC VALUE NOT DSECT ?      12150000
         AIF (T'&TYPE EQ 'O').TYPEER3   TYPE VALUE SPECIFIED ?          12200000
         AIF (('&TYPE' NE 'ALL') AND ('&TYPE' NE 'JCL')).NOJCD          12250000
*---------------------------------------------------------------------* 12300000
*   PARAMETER LIST FOR EXEC PROC=                                     * 12350000
*---------------------------------------------------------------------* 12400000
         SPACE 1                                                        12450000
&IJBIVMD SETB  1            INDICATE FUNC=DSECT PROCESSED               12500000
PARMPRC  DSECT                                                          12550000
PRCNM    DS    CL8                 PROCEDURE NAME                       12600000
PRCALIB  DS    A                   ADDRESS OF LDT                       12650000
PRCASLB  DS    A                   ADDRESS OF SDT                       12700000
PRCDATA  DS    X                   X'01' : SYSIPT DATA                  12750000
PRCOV    DS    X                   X'01' : OVERWRITE                    12800000
PRCPARM  DS    X                   X'01' : PARAMETERIZED PROCEDURE      12850000
         DS    X                   NOT USED                             12900000
PRCPARML EQU   *-PARMPRC                                                12950000
         SPACE 2                                                        13000000
.NOJCD   ANOP                                                           13050000
         AIF (('&TYPE' NE 'ALL') AND ('&TYPE' NE 'VSM')).NOVSMD         13100000
*---------------------------------------------------------------------* 13150000
*   PARAMETER LIST FOR VSAM OPEN SINGLE CLUSTER / BASE CLUSTER / AIX  * 13200000
*---------------------------------------------------------------------* 13250000
         SPACE 1                                                        13300000
&IJBIVMD SETB  1            INDICATE FUNC=DSECT PROCESSED               13350000
PARMOV1  DSECT                                                          13400000
OV1FLID  DS    A                   ADDRESS OF FLID                      13450000
OV1ACB   DS    A                   ADDRESS OF ACB                       13500000
OV1OWA   DS    A                   ADDRESS OF OWA                       13550000
OV1BFLID DS    A                   ADDRESS OF FLID OF BASE CLUSTER      13600000
*                                  ... = 0 AIX IS BASE CLUSTER          13650000
SHAREOPT EQU   WACOMMON+148                                             13700000
OV1PARML EQU   *-PARMOV1                                                13750000
         SPACE 2                                                        13800000
*---------------------------------------------------------------------* 13850000
*   PARAMETER LIST FOR VSAM OPEN PATH ENTRY                           * 13900000
*---------------------------------------------------------------------* 13950000
         SPACE 1                                                        14000000
PARMOV2  DSECT                                                          14050000
OV2FLID  DS    A                   ADDRESS OF FLID                      14100000
OV2ACB   DS    A                   ADDRESS OF ACB                       14150000
OV2RFLID DS    A                   ADDRESS OF RELATED PATH ENTRY        14200000
         DS    CL3                                                      14250000
OV2RTYP  DS    CL1                 PATH TYPE: G - AIX CLUSTER           14300000
*                                             C - BASE CLUSTER          14350000
OV2PARML EQU   *-PARMOV2                                                14400000
         SPACE 2                                                        14450000
*---------------------------------------------------------------------* 14500000
*   PARAMETER LIST FOR VSAM OPEN UPGRADE SET                          * 14550000
*---------------------------------------------------------------------* 14600000
PARMOV5  DSECT                                                          14650000
OV5FLID  DS    A                   ADDRESS OF FLID LIST                 14700000
OV5FNUM  DS    F                   NUMBER OF FLID-S                     14750000
*                                  ...= NUMBER OF AIX-S ON BASE CLUSTER 14800000
OV5PARML EQU   *-PARMOV5                                                14850000
.NOVSMD  ANOP                                                           14900000
         AIF (('&TYPE' NE 'ALL') AND ('&TYPE' NE 'BAM')).NOBAMD         14950000
*---------------------------------------------------------------------* 15000000
*      DSECT OF PARAMETER LIST FOR BAM                                * 15050000
*---------------------------------------------------------------------* 15100000
&IJBIVMD SETB  1            INDICATE FUNC=DSECT PROCESSED               15150000
         IJJGZMCA                                                       15200000
.NOBAMD  ANOP                                                           15250000
         AIF (('&TYPE' NE 'ALL') AND ('&TYPE' NE 'PWR')).NOPWRD         15300000
*---------------------------------------------------------------------* 15350000
*   PARAMETER LIST FOR SLI                                            * 15400000
*---------------------------------------------------------------------* 15450000
         SPACE 1                                                        15500000
&IJBIVMD SETB  1            INDICATE FUNC=DSECT PROCESSED               15550000
PARMSLI  DSECT                                                          15600000
SLITCB   DS    A                   POWER TCB                            15650000
SLIARPL  DS    A                   ADDRESS OF RPL NAME  / 0 FOR ICCF    15700000
SLIANAM  DS    A                   ADDRESS OF MEMBER NAME / 0 FOR VSE   15750000
SLIALIB  DS    A                   ADDRESS OF ICCF LIB NUMBER           15800000
*                                                         / 0 FOR VSE   15850000
SLIPARML EQU   *-PARMSLI                                                15900000
         SPACE 2                                                        15950000
.NOPWRD  ANOP                                                           16000000
         AIF (('&TYPE' NE 'ALL') AND ('&TYPE' NE 'LIB')).NOLIBD         16050000
*---------------------------------------------------------------------* 16100000
*   PARAMETER LIST FOR MODULE TO PHASE CORRELATION                    * 16150000
*---------------------------------------------------------------------* 16200000
         SPACE 1                                                        16250000
&IJBIVMD SETB  1            INDICATE FUNC=DSECT PROCESSED               16300000
PARMMOD  DSECT                                                          16350000
MODPHNM  DS    CL8                 PHASE NAME                           16400000
MODPHLN  DS    CL8                 LIBRARY  NAME (PHASE)                16450000
MODPHSN  DS    CL8                 SUBLIB NAME   (PHASE)                16500000
         DS    CL6                                                      16550000
MODMONM  DS    CL8                 MODULE NAME                          16600000
MODMOLN  DS    CL8                 LIBRARY NAME (MODULE)                16650000
MODMOSN  DS    CL8                 SUBLIB NAME (MODULE)                 16700000
         DS    CL6                                                      16750000
MODPARML EQU   *-PARMMOD                                                16800000
         SPACE 2                                                        16850000
.NOLIBD  ANOP                                                           16900000
         AIF (('&TYPE' NE 'ALL') AND ('&TYPE' NE 'CIC')).NOCI  @D31FMIS 16950000
*--------------------------------------------------------------@D31FMIS 17000000
*   PARAMETER LIST FOR CICS MONITORING                         @D31FMIS 17050000
*--------------------------------------------------------------@D31FMIS 17100000
         SPACE 1                                               @D31FMIS 17150000
&IJBIVMD SETB  1            INDICATE FUNC=DSECT PROCESSED      @D31FMIS 17200000
PARMCICS DSECT                                                 @D31FMIS 17250000
FNAFNAME DS    CL8                 FILE NAME                   @D31FMIS 17300000
FNAPNAME DS    CL8                 PHASE NAME                  @D31FMIS 17350000
FNALNAME DS    CL8                 LIBRARY NAME                @D31FMIS 17400000
FNASNAME DS    CL8                 SUBLIBRARY NAME             @D31FMIS 17450000
FNAANAME DS    CL8                 APPLICATION NAME            @D31FMIS 17500000
FNAINAME DS    CL8                 INITIAL PHASE NAME          @D31FMIS 17550000
FNALANG  DS    CL1                 LANGUAGE                    @D31FMIS 17600000
FNARES   DS    CL7                 RESERVED                    @D31FMIS 17650000
PARMCICL EQU   *-PARMCICS                                      @D31FMIS 17700000
         SPACE 2                                               @D31FMIS 17750000
.NOCI    ANOP                                                  @D31FMIS 17800000
         AIF (NOT &IJBIVMD).TYPEER2 NO DSECTS  GENERATED ?              17850000
         MEXIT              LEAVE MACRO                                 17900000
.NODSECT ANOP                                                           17950000
.*********************************************************************  18000000
.*      CHECK, IF &NAME FIELD SPECIFIED                                 18050000
.*********************************************************************  18100000
         AIF (T'&NAME EQ 'O').NONAM      NAME FIELD NOT SPECIFIED ?     18150000
&NAME    DS    0H                                                       18200000
.NONAM   ANOP                                                           18250000
.*********************************************************************  18300000
.*      CHECK, IF EQUATES AVAILABLE FOR FUNC VALUE                      18350000
.*********************************************************************  18400000
         AIF ('&FUNC' EQ 'MONSTATE').MONST  PROCESS FUNCTION            18450000