         MACRO                                                          00050000
&NAME    IPTE  &R1,&R2                                                  00100000
*        IPTE  370 EXTENTED                                             00150000
&NAME    DC    X'B221'                                                  00200000
         SLR   &R1,&R2                                                  00250000
         ORG   *-2                                                      00300000
         DC    X'0'                                                     00350000
         ORG                                                            00400000
         MEND                                                           00450000
