         MACRO                                                 @D35DDUL 00050000
&NAME    MAPANCH                                                        00100000
************************************************************** @D35DDUL 00150000
*                                                            * @D35DDUL 00200000
.*     IBM DISK OPERATING SYSTEM                             * @D35DDUL 00250000
*      SUPERVISOR - MAPANCH - 5686-007-06-C44                * @D149DJB 00300000
.*                                                           * @D149DJB 00350000
         AGO   .ZZZ                                          * @D31UDMZ 00400000
*      THIS MACRO IS "RESTRICTED MATERIALS OF IBM"           * @D31UDMZ 00450000
*      5686-007 (C) COPYRIGHT IBM CORP. 1981,1989            * @D31UDMZ 00500000
*      ALL RIGHTS RESERVED                                   * @D31UDMZ 00550000
*      LICENSED MATERIALS-PROPERTY OF IBM                    * @D149DJB 00600000
*      SEE COPYRIGHT INSTRUCTIONS, G120-2083                 * @D31UDMZ 00650000
.ZZZ     ANOP                                                  @D31UDMZ 00700000
*                                                            * @D35DDUL 00750000
*      MAPANCH - VSAM INFORMATION MAPPING STRUCTURE          * @D149DJB 00800000
* CHANGE ACTIVITY   POINTER FOR VSAM LUB TABLE ADDED         * @D31HDGW 00850000
*                                                            * @D35DDUL 00900000
************************************************************** @D35DDUL 00950000
&NAME    DSECT                                                 @D35DDUL 01000000
         DS    F                   RESERVED                    @D14CDJB 01050000
ANCHLUB  DS    F                   PTR TO VSAM DYN ASSGN TABLE @D31HDGW 01100000
ANCHAMFF DS    X                   VSAM CATALOG OPEN INDICATOR @D35DDUL 01150000
ANCHCBS  DS    3X                  PTR TO VSAM CATALOG CTL BLK @D35DDUL 01200000
ANCHOAL  DS    F                   PTR TO VSAM OPEN ACB LIST   @D35DDUL 01250000
         MEND                                                  @D35DDUL 01300000
