*%GOTO MDIBFBA ;                                                        00050000
         MACRO                                                          00100000
&NAME    MAPDIBF   &DIBX=NO                                             00150000
.********************************************************************** 00200000
.*       IBM DISK OPERATING SYSTEM                                      00250000
*                                                                       00300000
*        SUPERVISOR - MAPDIBF - 5686-007-06 - C44                       00350000
         AGO   .ZZZ                                            @D31UDMZ 00400000
*        THIS MACRO IS "RESTRICTED MATERIALS OF IBM"           @D31UDMZ 00450000
*        5686-007 (C) COPYRIGHT IBM CORP. 1977,1989            @D31UDMZ 00500000
*        ALL RIGHTS RESERVED                                   @D31UDMZ 00550000
*        LICENSED MATERIALS-PROPERTY OF IBM                    @D31UDMZ 00600000
*        SEE COPYRIGHT INSTRUCTIONS, G120-2083                 @D31UDMZ 00650000
.ZZZ     ANOP                                                  @D31UDMZ 00700000
*                                                                       00750000
.*  START OF SPECIFICATIONS ****************************************  * 00800000
.*                                                                    * 00850000
.* 01* MODULE-TYPE = SUPERVISOR GENERATION AND USER INTERFACE MACRO   * 00900000
.*                                                                    * 00950000
.* 01* DECRIPTIVE NAME = MAP OF FBA DISK INFORMATION BLOCK            * 01000000
.*                                                                    * 01050000
.* 01* NOTES = CHANGE ACTIVITY                                        * 01100000
.*     NEW CODE FOR REL.35 TO SUPPORT SYSTEM FILES ON FBA      @D35DDGS 01150000
.* A000000-999999                                              @D35DDGS 01200000
.* *** END OF SPECIFICATIONS  **************************************  * 01250000
.*                                                                    * 01300000
         AIF   ('&DIBX' EQ 'YES' OR '&DIBX' EQ 'NO').MAP1               01350000
         MNOTE 'DIBX SPECIFICATION INVALID. ''YES'' ASUMED.'            01400000
.MAP1    ANOP                                                           01450000
.*                                                                    * 01500000
.*                                                                    * 01550000
.*        MAP OF DISK INFORMATION BLOCK FOR FBA DEVICES               * 01600000
.*                                                                    * 01650000
.*                                                                    * 01700000
.*    0  _______________________________________________              * 01750000
.*      |                                               |             * 01800000
.*      |                    ULPBN                      |             * 01850000
.*      |                                               |             * 01900000
.*    4 |_______________________________________________|             * 01950000
.*      |                                               |             * 02000000
.*      |                    CRPBN                      |             * 02050000
.*      |                                               |             * 02100000
.*    8 |_______________________________________________|             * 02150000
.*      |                       |                       |             * 02200000
.*      |       CIOFF           |       LNGCI           |             * 02250000
.*      |                       |                       |             * 02300000
.*   12 |_______________________|_______________________|             * 02350000
.*      |                                               |             * 02400000
.*      |                    PBUFFER                    |             * 02450000
.*      |  PBPERCI |                                    |             * 02500000
.*   16 |__________|____________________________________|             * 02550000
.*      |                                               |             * 02600000
.*      |                    PDIBX                      |             * 02650000
.*      | DIBFLAGS |                                    |             * 02700000
.*   20 |__________|____________________________________|             * 02750000
.*      |                       |                       |             * 02800000
.*      |       DIBRSCNT        |     RESERVED          |             * 02850000
.*      |                       |                       |             * 02900000
.*   24 |_______________________|_______________________|             * 02950000
.*                                                                    * 03000000
.*                                                                    * 03050000
.********************************************************************** 03100000
.*                                                                    * 03150000
.*                                                                    * 03200000
.*                                                                      03250000
         AIF   ('&NAME' EQ '').AA                                       03300000
&NAME    DSECT ,                   FBA DISK INFORMATION BLOCK           03350000
         AGO   .BB                                                      03400000
.AA      ANOP                                                           03450000
DIBFBA   DSECT ,                   FBA DISK INFORMATION BLOCK           03500000
.BB      ANOP                                                           03550000
ULPBN    DS    F                   UPPER LIMIT PHYSICAL BLOCK           03600000
CRPBN    DS    F                   CURRENT PHYSICAL BLOCK               03650000
CIOFF    DS    H                   OFFSET OF CURRENT RECORD            *03700000
                                    WITHIN CI ( IN BYTES )              03750000
LNGCI    DS    H                   LENGTH OF CI ( IN BYTES )            03800000
PBUFFER  EQU   *                   FULLWORD ADDR OF BUFFER PTR          03850000
PBPERCI  DS    AL1                 NO OF PHYS BLOCKS PER CI             03900000
PBUFFER1 DS    AL3                 POINTER TO CI BUFFER                 03950000
PDIBX    EQU   *                   FULLWORD ADDR OF DIBX PTR            04000000
DIBFLAGS DS    XL1                 FLAGBYTE                             04050000
PDIBX1   DS    AL3                 POINTER TO DIB EXTENSION             04100000
DIBRSCNT DS    H                   RESIDUAL COUNT FOR JCL MSG           04150000
         DS    H                   RESERVED                             04200000
*                                                                       04250000
*                                DIB EQUATES :                          04300000
BFRUSE   EQU   X'01'               BUFFER IN USE FLAG                   04350000
EOXT     EQU   X'02'               END OF EXTENT REACHED                04400000
WRTIMM   EQU   X'04'               FORCE WRITE OUT                      04450000
READJUST EQU   X'10'               SOURCE BEGIN READJUST REQD           04500000
DIBWANT  EQU   X'40'               TASK WAITING FOR DIB                 04550000
DIBFGATE EQU   X'80'               DIB GATE FLAG                        04600000
*                                                                       04650000
*                                                                       04700000
      AIF   ('&DIBX' EQ 'NO').MAP2                                      04750000
.*                                                                    * 04800000
.*                                                                    * 04850000
.********************************************************************** 04900000
.*                                                                    * 04950000
.*        MAP OF DISK INFORMATION BLOCK EXTENSION FOR FBA DEVICES.    * 05000000
.*                                                                    * 05050000
.*                                                                    * 05100000
.*    0  _______________________________________________              * 05150000
.*      |                                               |             * 05200000
.*      |              IORB                             |             * 05250000
.*    8 |_______________________________________________|             * 05300000
.*      |                                               |             * 05350000
.*      |              IORB (CONTINUED)                 |             * 05400000
.*   16 |_______________________________________________|             * 05450000
.*      |                                               |             * 05500000
.*      |              IORB (CONTINUED)                 |             * 05550000
.*   24 |_______________________________________________|             * 05600000
.*      |                                               |             * 05650000
.*      |              FIXLIST  FIRST AREA              |             * 05700000
.*   32 |_______________________________________________|             * 05750000
.*      |                                               |             * 05800000
.*      |              FIXLIST SECOND AREA              |             * 05850000
.*   40 |_______________________________________________|             * 05900000
.*      |                                               |             * 05950000
.*      |              DEFINE EXTENT CCW                |             * 06000000
.*   48 |_______________________________________________|             * 06050000
.*      |                                               |             * 06100000
.*      |              LOCATE CCW                       |             * 06150000
.*   56 |_______________________________________________|             * 06200000
.*      |                                               |             * 06250000
.*      |              READ/WRITE CCW                   |             * 06300000
.*   64 |_______________________________________________|             * 06350000
.*      |                                               |             * 06400000
.*      |     PARAMETER FIELD FOR DEFINE EXTENT CCW     |             * 06450000
.*   72 |_______________________________________________|             * 06500000
.*      |                                               |             * 06550000
.*      |  PARAMETER FIELD FOR DEF.EXT.CCW (CONTINUED)  |             * 06600000
.*   80 |_______________________________________________|             * 06650000
.*      |                                               |             * 06700000
.*      |     PARAMETER FIELD FOR LOCATE CCW            |             * 06750000
.*   88 |_______________________________________________|             * 06800000
.*                                                                    * 06850000
.*                                                                    * 06900000
.********************************************************************** 06950000
.*                                                                      07000000
*                                                                       07050000
*                                                                       07100000
DIBX     DSECT                     FBA-DIB EXTENSION                    07150000
DIBXIORB DS    3D                  INPUT/OUTPUT REQ.BLOCK               07200000
DIBXFLST DS    2D                  FIXLIST FOR DO-IO                    07250000
DIBXCCW1 DS    D                   DEFINE EXTENT CCW                    07300000
DIBXCCW2 DS    D                   LOCATE CCW                           07350000
DIBXCCW3 DS    D                   READ/WRITE CCW                       07400000
DIBXDEFX DS    2D                  PARAMETER FIELD FOR DEF.EXT.CCW      07450000
DIBXLOC  DS    D                   PARAMETER FIELD FOR LOCATE CCW       07500000
DIBXLN   EQU   *-DIBX              LENGTH OF DIBX                       07550000
*                                                                       07600000
.MAP2    ANOP                                                           07650000
         MEND                                                           07700000
*%MDIBFBA : ;                                                           07750000
* DECLARE                 /* FBA DISK INFORMATION BLOCK              */ 07800000
* 1   DIBFBA   CHAR(24) BASED BOUNDARY (WORD),                          07850000
*  2  ULPBN    FIXED(32), /* UPPER LIMIT PHYSICAL BLCK               */ 07900000
*  2  CRPBN    FIXED(32), /* CURRENT PHYSICAL BLOCK                  */ 07950000
*  2  CIOFF    FIXED(15), /* OFFSET OF CURRENT RECORD                */ 08000000
*                         /*  WITHIN CI ( IN BYTES )                 */ 08050000
*  2  LNGCI    FIXED(15), /* LENGTH OF CI ( IN BYTES )               */ 08100000
*  2  PBUFFER  PTR(32)  , /* FULLWRD ADDR OF BUFFER PTR              */ 08150000
*   3 PBPERCI  FIXED(8) , /* NO OF PHYS BLOCKS PER CI                */ 08200000
*   3 PBUFFER1 PTR(24)  , /* POINTER TO CI BUFFER                    */ 08250000
*  2  PDIBX    PTR(32)  , /* FULLWORD ADDR OF DIBX PTR               */ 08300000
*   3 DIBFLAGS BIT(8)   , /* FLAGBYTE                                */ 08350000
*   3 PDIBX1   PTR(24)  , /* POINTER TO DIB EXTENSION                */ 08400000
*  2  DIBRSCNT FIXED(15), /* RESIDUAL COUNT FOR JCL MSG              */ 08450000
*  2  *        FIXED(15); /* RESERVED                                */ 08500000
*                                                                       08550000
* %BFRUSE = '1'         ; /* BUFFER IN USE FLAG                      */ 08600000
* %EOXT = '2'           ; /* END OF EXTENT                           */ 08650000
* %WRTIMM = '4'         ; /* FORCE WRITE OUT                         */ 08700000
* %READJUST = '16'      ; /* SOURCE BEGIN READJUST REQUIRED          */ 08750000
* %DIBWANT = '64'       ; /* TASKS WAITING FOR THIS DIB              */ 08800000
* %DIBFGATE = '128'     ; /* DIB GATE FLAG                           */ 08850000
*                                                                       08900000
* DECLARE                 /* FBA DIB EXTENSION                       */ 08950000
* 1   DIBX     CHAR(88) BASED BOUNDARY (WORD),                          09000000
*  2  DIBXIORB CHAR(24) , /* SYSUSE CCB FOR FBA I/O                  */ 09050000
*  2  DIBXFLST CHAR(16) , /* FIX LIST FOR DOIO                       */ 09100000
*  2  DIBXCCW1 CHAR(8)  , /* DEFINE EXTENT CCW                       */ 09150000
*  2  DIBXCCW2 CHAR(8)  , /* LOCATE CCW                              */ 09200000
*  2  DIBXCCW3 CHAR(8)  , /* READ/WRITE CCW                          */ 09250000
*  2  DIBXDEFX CHAR(16) , /* PARAMETER FIELD FOR CCW1                */ 09300000
*  2  DIBXLOC  CHAR(8)  ; /* PARAMETER FIELD FOR CCW2                */ 09350000
*                                                                       09400000
*                                                                       09450000
