         MACRO                                                          00050000
&NAME    MAPDPD                                                         00100000
.*-------------------------------------------------------------@D148DVB 00150000
.*                                                             @D148DVB 00200000
.*       IBM DISK OPERATING SYSTEM                             @D148DVB 00250000
*        SUPERVISOR - MAPDPD   5686-CF7-06                     @D68DDUL 00300002
.*                                                             @D148DVB 00350000
.************************************************************* @D148DVB 00400000
.*                                                           * @D148DVB 00450000
         AGO   .ZZZ                                          * @D31UDRP 00500000
*        LICENSED MATERIALS - PROPERTY OF IBM                * @D31UDRP 00550000
*        THIS MACRO IS "RESTRICTED MATERIALS OF IBM"         * @D31UDRP 00600000
*        5686-CF7 (C) COPYRIGHT IBM CORP. 1979, 2004         * @D68DDUL 00650002
.*       SEE COPYRIGHT INSTRUCTIONS                          * @D31UDRP 00700000
.ZZZ     ANOP                                                * @D31UDRP 00750000
.*                                                           * @D148DVB 00800000
.************************************************************* @D148DVB 00850000
.* /* START OF SPECIFICATIONS ***************************************** 00900000
.*                                                                      00950000
.*01* MODULE NAME = MAPDPD                                              01000000
.*                                                                      01050000
.*01* MODULE TYPE = INTERNAL SYSTEM MACRO                               01100000
.*                    USED BY SUPERVISOR, STAND ALONE DUMPS AND IPL     01150000
.*                                                                      01200000
.*01* DESCRIPTIVE NAME = DSECT OF PAGE-DATA-SET TABLE (DPDTAB)          01250000
.*                                                                      01300000
.*01* CHANGE ACTIVITY = AS FOLLOWS                                      01350000
.*    CHANGE DESCRIPTION                                                01400000
.*            NEW MACRO -- FIRST RELEASE 35                    @D35EDAA 01450000
.*            MULTIPLE PAGE I/O                                @D14BDRP 01500000
.*            MULTIPLE VIRTUAL ADDRESS SPACES                  @D14NDFG 01550000
.*                                                                      01600000
.*A000000-999999                                               @D35EDAA 01650000
.**** END OF SPECIFICATIONS ******************************************/ 01700000
&NAME    DSECT                                                          01750000
*                                                                       01800000
*                                 HEADER OF DPDTAB                      01850000
*                                                                       01900000
DPDEXT#  DS    H                  NUMBER OF SPECIFIED EXTENTS           01950000
DPDAEXT# DS    H                  NUMBER OF ACTUAL EXTENTS              02000000
         DS    F                  RESERVED                     @D61BDRP 02050000
DPDLLCON DS    F                  ADDR OF CONSTANT TABLE FOR LOAD LEV   02100000
         DS    H                  RESERVED                     @D14NDFG 02150000
DPDLEN   DS    H                  LENGTH OF DPDEXT-TAB ENTRY            02200000
DPDHDRL  EQU   *-DPDEXT#          LENGTH OF HEADER                      02250000
*                                                                       02300000
*                                 LAYOUT OF DPDTAB - ENTRIES            02350000
*                                                                       02400000
DPDENTR  DSECT                                                          02450000
DPDUNT   DS    H                  CHANNEL AND UNIT OF PDS EXT.DEVICE    02500000
DPDDEVT  DS    X                  DEVICE TYPE: FBA / CKD / RPS          02550000
DPDDEVC  DS    X                  DEVICE TYPE CODE                      02600000
DPDBLKLG DS    0H                 BLOCK LENGTH IF FBA DEVICE            02650000
DPDREC#  DS    H                  NUMBER OF RECORDS PER TRACK           02700000
DPDBLKPG DS    0H                 NUMBER OF BLOCKS  PER PAGE            02750000
DPDTRCK# DS    H                  NUMBER OF TRACKS PER CYLINDER         02800000
DPDBLKLL DS    0F                 BLOCK# OF LOWER LIMIT                 02850000
DPDRTLL  DS    F                  REL. TRACK ADDR OF LOW EXT. LIMIT     02900000
DPDBLKU  DS    0F                 # OF BLOCKS USED                      02950000
DPDTRCKU DS    F                  # OF TRACKS USED                      03000000
DPDPUB   DS    H                  PUB INDEX                             03050000
DPDVOLID DS    XL6                VOLID FOR PAGEDATASET                 03100000
DPDPGUL  DS    F                  PAGE# OF UPPER EXTENT LIMIT  @D14NDFG 03150000
DPDXNTLL DS    F                  ECKD, EXTENT LOW. LIM. (CCHH)@D51EDRP 03200000
DPDXNTUL DS    F                  ECKD, EXTENT UPP. LIM. (CCHH)@D51EDRP 03250000
DPDDEVCB DS    F                  ADDR OF DEVCB FOR THIS EXTENT@D14BDRP 03300000
DPDFCP   DS    H                  SCSI: CUU OF FCP             @D68DDUL 03320001
DPDDFLG  DS    X                  SCSI: DUMP FLAGS             @D68DDUL 03330003
DPDDOP   EQU   X'80'              SCSI EXTENT OPEN             @D68DDUL 03330107
DPDXERR  EQU   X'40'              ERORR ON SCSI EXTENT         @D68DDUL 03330204
         DS    X                  RESERVED                     @D68DDUL 03331003
DPDWWPN  DS    CL8                SCSI: PORT NUMBER            @D68DDUL 03340001
DPDLUN   DS    CL8                SCSI: LUN NUMBER             @D68DDUL 03341001
DPDENTL  EQU   *-DPDUNT           LENGTH OF DPDTAB ENTRY                03350000
         MEND                                                           03400000
