*%GOTO PLAS_FMBD; /*                                                    00000100
         MACRO                                                          00150000
&NAME    MAPFMBD &DSECT=YES                                             00200000
         LCLC &LABNAM                                          @D62ADMK 00250000
***************************************************************         00300000
*                                                                       00350000
.*       IBM VSE / ADVANCED FUNCTIONS                         *@D62ADMK 00400000
*        SUPERVISOR - MAPFMBD - 5686-032-06-C55               *@D62ADMK 00450000
.*                                                                      00500000
         AGO   .CPRIGHT                                                 00550000
.*                                                                      00600000
*        LICENSED MATERIALS - PROGRAM PROPERTY OF IBM         *@D62ADMK 00650000
*        THIS MACRO IS "RESTRICTED MATERIALS OF IBM"          *@D62ADMK 00700000
*        5686-032 (C) COPYRIGHT IBM CORP. 1979, 1990          *@D62ADMK 00750000
*        SEE COPYRIGHT INSTRUCTIONS                           *@D62ADMK 00800000
.*                                                                      00850000
.CPRIGHT ANOP                                                           00900000
*                                                             *@D62ADMK 00950000
***************************************************************         01000000
.*                                                                      01050000
.* * START OF SPECIFICATIONS ***********************************        01100000
.*                                                                      01150000
.*01* MODULE-TYPE = MACRO                                               01200000
.*                                                                      01250000
.*01* DESCRIPTIVE NAME = MAPPING STRUCTURE FOR MVS SIMULATION           01300000
.*                       SERVICES CONTAINING SEVERAL AREAS              01350000
.*                       WHICH ARE USED THRU EXECUTION OF AN MVS        01400000
.*                       SERVICE                                        01450000
.*                                                                      01500000
.*                       THE MAPPING STRUCTURE EXPANDS EITHER IN        01550000
.*                       DSECT (DSECT=YES) OR IN AN INLINE TABLE        01600000
.*                                                                      01650000
.*01* CHANGE ACTIVITIES=  NEW MACRO   FIRST RELEASE 2.3        @D62ADMK 01700000
.*                                                                      01800000
.*    USED BY     = SUPERVISOR, $IJBFMBD                                01950000
.*                                                                      02000000
.* END OF SPECICATIONS *****************************************        02050000
         AIF   (T'&NAME NE 'O').NAME       LABEL GIVEN SKIP             02100000
&LABNAM  SETC  'MAPFMBD'                   SET DEFAULT NAME             02150000
         AGO   .NAME1                                                   02200000
.NAME    ANOP                              USE LABEL                    02250000
&LABNAM  SETC  '&NAME'                                                  02300000
.NAME1   ANOP                                                           02350000
         AIF   ('&DSECT' EQ 'YES').DSECT   YES DSECT GENERATION         02400000
         AIF   ('&DSECT' EQ 'NO').INLINE   GEN. INLINE CODE    @D62ADMK 02450000
         MNOTE 1,'INVALID DSECT OPERAND SPECIFIED, INLINE ASSUME'       02500000
.INLINE  ANOP                                                           02550000
&LABNAM  DS    0F                          MAPFMBD                      02600000
         AGO   .GENTAB                                                  02650000
.DSECT   ANOP                                                           02700000
&LABNAM  DSECT                             DUMMY SECTION FOR MAP        02750000
.GENTAB  ANOP                                                           02800000
FM_FMCA  DS    XL(FM_FMCAL)        FMCA                                 02850000
         DS    0F                  ALIGN                                02850100
FM_DYN   DS    XL(FM_DYNL)         DYNAMIC STORAGE OF IJBFMBD           02900000
         DS    0F                  ALIGN                                02900100
FM_PARM  DS    XL(FM_PARML)        VSE PLIST + CANCEL AREA              02950000
         DS    0F                  ALIGN                                02950100
FM_SUB   DS    XL(FM_SUBL)         VSE SUBTASK SA + USER SA             03000000
         DS    0F                  ALIGN                                03000100
FM_CAN   DS    XL(FM_CANL)         STORAGE FOR MAPDMPIF                 03050000
         DS    0F                  ALIGN                                03050010
FM_TNDYN DS    XL(FM_TNDYNL)       STORAGE FOR IJBFMTN                  03050100
         DS    0F                  ALIGN                                03050110
FM_MK    DS    XL(FM_MKL)          STORAGE FOR SUP WORK AREA            03050200
         DS    0F                  ALIGN                                03050110
FM_WKARA DS    XL(FM_WKARAL)       STORAGE FOR IJBFMBD REGS FOR SUBRTN  03050200
         DS    0F                  ALIGN                                03050110
FM_PSTSV DS    XL(FM_PSTSVL)       STORAGE FOR POSTEXIT CURRENT SAVE    03050200
         DS    0F                  ALIGN                                03050110
FM_PSTEX DS    XL(FM_PSTEXL)       STORAGE FOR POSTEXIT EXIT SAVE AREA  03050200
FM_FMBDLEN EQU *-FM_FMCA                                                03050300
FM_FMCAL   EQU  X'E8'                                                   03050400
FM_DYNL    EQU  X'548'                                                  03050410
FM_PARML   EQU  X'A4'                                                   03050420
FM_SUBL    EQU  X'48'                                                   03050430
FM_CANL    EQU  X'40'                                                   03050440
FM_TNDYNL  EQU  X'80'                                                   03050450
FM_MKL     EQU  X'88'                                                   03050460
FM_WKARAL  EQU  X'48'                                                   03050460
FM_PSTSVL  EQU  SVULNGTH                                                03050460
FM_PSTEXL  EQU  SVULNGTH                                                03050460
         MEND              */                                           03150000
 %PLAS_FMBD: ;                                                          03150100
 /***START OF SPECIFICATIONS******************************************/ 03150200
 /*                                                                  */ 03150300
 /*  MACRO-NAME = MAPFMBD                                            */ 03150400
 /*                                                                  */ 03150500
 /*   DESCRIPTIVE-NAME = MAPPING STRUCTURE FOR MVS SIMULATION        */ 03150600
 /*                      SERVICES CONTAINING SEVERAL AREAS           */ 03150700
 /*                      WHICH ARE USED THRU EXECUTION OF AN MVS     */ 03150800
 /*                      SERVICE                                     */ 03150900
 /*                                                                  */ 03150910
 /*   SECURITY =                                                     */ 03151000
 /********************************************************************/         
 /*                                                                  */         
 /*              SUPERVISOR - MAPFMBD - 5686-032-06                  */ 03151400
 /*                                                                  */         
 /********************************************************************/ 00600000
 /*                                                                  */         
 /*              LICENSED MATERIALS - PROGRAM PROPERTY OF IBM        */ 00650000
 /*              "RESTRICTED MATERIALS OF IBM"                       */ 00700000
 /*              5686-032 (C) COPYRIGHT IBM CORP. 1979, 1990         */ 00750000
 /*              (C) COPYRIGHT IBM CORP. 1979, 1996                  */ 00750000
 /*                                                                  */         
 /********************************************************************/         
 /*                                                                  */ 03151400
 /*   FUNCTION = COMMUNICATION AREA BETWEEN SUPERVISOR AND $IJBFMBD  */ 03151500
 /*                                                                  */ 03151600
 /*   MACRO-TYPE = MAPPING MACRO                                     */ 03151700
 /*                                                                  */ 03151800
 /*   NOTES =                                                        */ 03151900
 /*                                                                  */ 03152000
 /*   MACRO-SIZE = SEE ASSEMBLER LISTING                             */ 03152100
 /*                                                                  */ 03152200
 /*   INVOCATION =                                                   */ 03152300
 /*                                                                  */ 03152400
 /*    HASM = MAPFMBD                                                */ 03152500
 /*                                                                  */ 03152600
 /*  CHANGE-ACTIVITY =                                               */ 03152700
 /*    CREATED FOR AF VERSION 6 RELEASE 1                            */ 03152800
 /*                                                                  */ 03152900
 /*                                                                  */ 03153000
 /***END OF SPECIFICATIONS********************************************/ 03153100
 @EJECT;                                                                03153200
 /********************************************************************/ 03153300
 /*                                                                  */ 03153400
 /*  MAPFMBD  - COMMON STORAGE LAYOUT USED BY SUPERVISOR AND IJBFMBD */ 03153500
 /*             (FAMILY API INPUT CHECKING/CONVERTION)               */ 03153600
 /*                                                                  */ 03153700
 /********************************************************************/ 03153800
 @SPACE;                                                                03153900
 DCL 1 MAPFMBD  BASED BDY(WORD),  /* FAMILY API COMMAREA LAYOUT      */ 03154100
      2 FM_FMCA  CHAR(FM_FMCAL) BDY(WORD), /* FMCA                   */ 03154300
      2 FM_DYN   CHAR(FM_DYNL)  BDY(WORD), /* DYN. STORAGE OF IJBFMBD*/ 03154410
      2 FM_PARM  CHAR(FM_PARML) BDY(WORD), /* VSE PLIST + CANCEL AREA*/ 03154610
      2 FM_SUB   CHAR(FM_SUBL) BDY(WORD), /* VSE SUBTASK SA + USER SA*/ 03154800
      2 FM_CAN   CHAR(FM_CANL) BDY(WORD), /* STORAGE FOR MAPDMPIF    */ 03155010
      2 FM_TNDYN CHAR(FM_TNDYNL) BDY(WORD), /* STORAGE FOR IJBFMTN   */ 03155200
      2 FM_MK    CHAR(FM_MKL) BDY(WORD), /* STORAGE FOR SUP WORK AREA*/ 03155400
      2 FM_WKARA CHAR(FM_WKARAL) BDY(WORD),  /* IJBFMBD REGS FOR SUB */ 03155400
      2 FM_PSTSV CHAR(FM_PSTSVL) BDY(WORD),  /* POST EXIT CURRENT ARA*/ 03155400
      2 FM_PSTEX CHAR(FM_PSTEXL) BDY(WORD);  /* POST EXIT EXIT AREA  */ 03155400
 @SPACE;                                                                03155410
 DCL FM_FMBDLEN FIXED BIN(31)                                           03155500
                CONSTANT(LENGTH(MAPFMBD)-LENGTH(FM_FMCA));              03155510
 DCL FM_FMCAL   FIXED BIN(31) CONSTANT('E8'X);                          03155600
 DCL FM_DYNL    FIXED BIN(31) CONSTANT('548'X);                         03155700
 DCL FM_PARML   FIXED BIN(31) CONSTANT('A4'X);                          03155800
 DCL FM_SUBL    FIXED BIN(31) CONSTANT('48'X);                          03155900
 DCL FM_CANL    FIXED BIN(31) CONSTANT('40'X);                          03156000
 DCL FM_TNDYNL  FIXED BIN(31) CONSTANT('80'X);                          03156100
 DCL FM_MKL     FIXED BIN(31) CONSTANT('88'X);                          03156200
 DCL FM_WKARAL  FIXED BIN(31) CONSTANT('48'X);                          03156200
 DCL FM_PSTSVL  FIXED BIN(31) CONSTANT('D8'X);                          03156200
 DCL FM_PSTEXL  FIXED BIN(31) CONSTANT('D8'X);                          03156200
