*%GOTO  MMAPJATB; /*PLS COMMENT TO AVOID UNMATCHED QUOTE PROBLEMS       00050000
         MACRO                                                          00100000
&NAME    MAPJATB                                                        00150000
.*       IBM DISK OPERATING SYSTEM                            *         00200000
*        SUPERVISOR - MAPJATB - 5686-007-06-C44               *         00250000
         AGO   .ZZZ                                           *         00300000
*        THIS MACRO IS "RESTRICTED MATERIALS OF IBM"          *@D31UDMZ 00350000
*        5686-007 (C) COPYRIGHT IBM CORP. 1981,1989           *@D31UDMZ 00400000
*        ALL RIGHTS RESERVED                                  *@D31UDMZ 00450000
*        LICENSED MATERIALS-PROPERTY OF IBM                   *         00500000
*        SEE COPYRIGHT INSTRUCTIONS, G120-2083                *@D31UDMZ 00550000
.ZZZ     ANOP                                                 *         00600000
         AIF   (T'&NAME EQ 'O').NONAME                                  00650000
&NAME    DSECT                                                          00700000
         AGO   .NAME                                                    00750000
.NONAME  ANOP                                                           00800000
ACCTABLE DSECT                    ACCT TABLE DSECT                      00850000
.NAME    ANOP                                                           00900000
ACCTSWTC DS    CL1                ACCT PARTITION SWITCHES      @D14BDFG 00950000
ACCTACTV EQU   X'80'              INDICATE JCL-N/$JOBACCT ACT. @D14BDBC 01000000
         DS    CL7                RESERVED                     @D14BDFG 01050000
ACCTSVPT DS    F                  SAVE AREA FOR JOB CARD POINTER        01100000
ACCTNSIO DS    H                  CURRENT NUMBER OF SIO COUNTS @D14BDFG 01150000
ACCTLEN  DS    H                  LENGTH OF CURRENT JA TABLE            01200000
ACCTCLCK DS    2F                 TIME FLD IN UNITS OF SECONDS @D14BDBC 01250000
ACCTLADD DS    A                  ADDR OF LABEL AREA                    01300000
ACCTCPUT DS    F                  PARTITION CPU TIME COUNTER            01350000
ACCTOVHT DS    F                  OVERHEAD CPU TIME COUNTER             01400000
ACCTBNDT DS    F                  WAIT TIME COUNTER                     01450000
ACCTSVJN DS    CL8                SAVE AREA FOR JOB NAME                01500000
ACCTJBNM DS    CL8                JOB NAME                              01550000
ACCTUSRS DS    CL16               USER INFORMATION                      01600000
ACCTPTID DS    CL2                PARTITION ID                          01650000
ACCTCNCL DS    XL1                CANCEL CODE                           01700000
ACCTYPER DS    CL1                TYPE OF RECORD                        01750000
ACCTDATE DS    CL8                DATE                                  01800000
ACCTSTRT DS    PL4                START TIME                            01850000
ACCTSTOP DS    PL4                STOP TIME                             01900000
ACCTDUR  DS    F                  JOB STEP DURATION            @D14BDBC 01950000
ACCTEXEC DS    CL8                PHASE NAME                            02000000
ACCTHICR DS    F                  HIGH CORE                             02050000
ACCTIMES DS    3F                 EXECUTION BREAKDOWN TIMES             02100000
ACCTSIOS DS    XL6                SIO TABLE                             02150000
ACCTALEN EQU   ACCTSIOS-ACCTABLE  LENGTH OF FIXED PART         @D14BDFG 02200000
ACCTEND  EQU   X'20'              SIOS-LIST INDICATOR          @D14BDBC 02250000
         MEND                                                           02300000
* END OF PLS COMMENT */ %MMAPJATB : ;                                   02350000
* DECLARE                                                               02400000
* 1  ACCTABLE  BASED,     /* ACCOUNTING PARTITION TABLE      @D14NDFG*/ 02450000
*  2 ACCTSWTC  CHAR(1),   /* ACCT PARTITION SWITCHES         @D14NDFG*/ 02500000
*  2 *         CHAR(7),   /* RESERVED                        @D14NDFG*/ 02550000
*  2 ACCTSVPT  PTR(32),   /* SAVE AREA FOR JOB CARD POINTER  @D14NDFG*/ 02600000
*  2 ACCTNSIO  FIXED(15), /* CURRENT NUMBER OF SIO COUNTS    @D14NDFG*/ 02650000
*  2 ACCTLEN   FIXED(15), /* LENGTH OF CURRENT JA TABLE      @D14NDFG*/ 02700000
*  2 ACCTCLCK  CHAR(8),   /* TIME FLD IN UNITS OF SECONDS    @D14NDFG*/ 02750000
*  2 *         CHAR(4),   /* RESERVED                        @D14NDFG*/ 02800000
*  2 ACCTCPUT  FIXED(32), /* PARTITION CPU TIME COUNTER      @D14NDFG*/ 02850000
*  2 ACCTOVHT  FIXED(32), /* OVERHEAD CPU TIME COUNTER       @D14NDFG*/ 02900000
*  2 ACCTBNDT  FIXED(32), /* WAIT TIME COUNTER               @D14NDFG*/ 02950000
*  2 ACCTSVJN  CHAR(8),   /* SAVE AREA FOR JOB NAME          @D14NDFG*/ 03000000
*  2 ACCTJBNM  CHAR(8),   /* JOB NAME                        @D14NDFG*/ 03050000
*  2 ACCTUSRS  CHAR(16),  /* USER INFORMATION                @D14NDFG*/ 03100000
*  2 ACCTPTID  CHAR(2),   /* PARTITION ID                    @D14NDFG*/ 03150000
*  2 ACCTCNCL  CHAR(1),   /* CANCEL CODE                     @D14NDFG*/ 03200000
*  2 ACCTYPER  CHAR(1),   /* TYPE OF RECORD                  @D14NDFG*/ 03250000
*  2 ACCTDATE  CHAR(8),   /* DATE                            @D14NDFG*/ 03300000
*  2 ACCTSTRT  FIXED(32), /* START TIME                      @D14NDFG*/ 03350000
*  2 ACCTSTOP  FIXED(32), /* STOP TIME                       @D14NDFG*/ 03400000
*  2 ACCTDUR   FIXED(32), /* JOB STEP DURATION               @D14NDFG*/ 03450000
*  2 ACCTEXEC  CHAR(8),   /* PHASE NAME                      @D14NDFG*/ 03500000
*  2 ACCTHICR  FIXED(32), /* REFERENCED STORAGE IN BYTES     @D14NDFG*/ 03550000
*  2 ACCTIMES  CHAR(12),  /* CPU, OVERHEAD AND WAIT TIMES    @D14NDFG*/ 03600000
*  2 ACCTSIOS  CHAR(6),   /* FIRST SIO COUNT ENTRY           @D14NDFG*/ 03650000
*   3 *        BIT(2),    /*                                 @D14NDFG*/ 03700000
*   3 ACCTEND  BIT(1);    /* END OF SIO COUNTS INDICATOR     @D14NDFG*/ 03750000
