*%GOTO MMAPJACM; /*ASSEMBLER VERSION INCLUDED WITHIN A PLS COMMENT      00050000
         MACRO                                                          00100000
&NAME    MAPJACM                                                        00150000
.*       IBM DISK OPERATING SYSTEM                            *         00200000
*        SUPERVISOR - MAPJACM - 5686-032-06                   *@D51IDIS 00250000
         AGO   .ZZZ                                           *         00300000
*        LICENSED MATERIALS - PROPERTY OF IBM                 *         00350000
*        THIS MACRO IS "RESTRICTED MATERIALS OF IBM"          *@D31UDMZ 00400000
*        5686-032 (C) COPYRIGHT IBM CORP. 1981, 1990          *@D51IDIS 00450000
*        SEE COPYRIGHT INSTRUCTIONS                           *@D31UDMZ 00500000
.ZZZ     ANOP                                                 *         00550000
         AIF   (T'&NAME EQ 'O').NONAME                                  00600000
&NAME    DSECT                                                          00650000
         AGO   .NAME                                                    00700000
.NONAME  ANOP                                                           00750000
ACCTCOMN DSECT                    JOB ACCONTING COMUNICATION AREA       00800000
.NAME    ANOP                                                           00850000
ACCTPCNT DS    F                  COUNT OF ACTIVE BATCH PARTITIONS      00900000
ACCTSWCH DS    XL1                JCL/IPL JOB ACCT SWITCHES             00950000
*                                   0  RESERVED                @D14BDBC 01000000
*                                   1  RESERVED                @D149DFG 01050000
ACCTCTSW EQU   X'20'                2  CATAL SWITCH            @D14BDFG 01100000
*                                  3-7 RESERVED                @D14BDFG 01150000
         DS    3X                 RESERVED                     @D14BDFG 01200000
ACCTABLN DS    F                  MAXIMUM LENGTH OF PART TABLE @D14BDFG 01250000
ACCTUSEP DS    F                  ADDRESS OF JA USER SAVE AREA @D14BDFG 01300000
ACCTUSEL DS    F                  LENGTH OF JA USER SAVE AREA  @D14BDFG 01350000
         MEND                                                           01400000
* END OF PLS COMMENT */ %MMAPJACM: ;                      /* @D51IDMZ*/ 01450000
* DECLARE                                                 /* @D51IDMZ*/ 01500000
* 1   ACCTCOMN BASED,     /* LAYOUT OF JOB ACC. COMM AREA    @D51IDMZ*/ 01550000
*  2  ACCTPCNT FIXED(31), /* COUNT OF ACTIVE BATCH PARTITIONS@D51IDMZ*/ 01600000
*  2  ACCTSWCH BIT(8),    /* JCL/IPL JOB ACCOUNT SWITCHES    @D51IDMZ*/ 01650000
*   3  *       BIT(2),    /* 0-1 RESERVED                    @D51IDMZ*/ 01700000
*   3 ACCTCTSW BIT(1),    /*  2  CATAL SWITCH                @D51IDMZ*/ 01750000
*   3  *       BIT(5),    /* 3-7 RESERVED                    @D51IDMZ*/ 01800000
*  2   *       CHAR(3),   /* RESERVED                        @D51IDMZ*/ 01850000
*  2  ACCTABLN FIXED(31), /* MAX. LENGTH OF PARTITION TABLE  @D51IDMZ*/ 01900000
*  2  ACCTUSEP FIXED(31), /* ADDRESS OF JA USER SAVE AREA    @D51IDMZ*/ 01950000
*  2  ACCTUSEL FIXED(31); /* LENGTH OF JA USER SAVE AREA     @D51IDMZ*/ 02000000
