*%GOTO MMAPPCB; /*ASSEMBLER VERSION INCLUDED WITHIN A PLS COMMENT       00001006
         MACRO                                                          00002006
&NAME    MAPPCB &DSECT=YES                                              00003006
         GBLC  &LABEL                                         *         00003114
.**************************************************************         00003214
.*       IBM DISK OPERATING SYSTEM                            *         00004006
*        SUPERVISOR - MAPPCB - 5686-066-06                    *         00005006
         AGO   .ZZZ                                           *         00007006
*        LICENSED MATERIALS - PROPERTY OF IBM                 *         00008006
*        "RESTRICTED MATERIALS OF IBM"                        *         00009014
*        5686-066                                             *         00010014
*        (C) COPYRIGHT IBM CORP. 1981, 2001                   *         00010114
.ZZZ     ANOP                                                 *         00012006
.**** START OF SPECIFICATIONS *********************************         00013014
.*                                                                      00014006
.*01* MODULE-TYPE = MACRO                                               00015006
.*                                                                      00016006
.*01* DESCRIPTIVE NAME = MAPPING OF PCB                                 00017006
.*                                                                      00018006
.*  STATUS           =  NEW MACRO - FIRST RELEASE                       00019006
.*                      VSE/AF VERSION 5 RELEASE 3                      00020006
.*                                                                      00021006
.*  FUNCTION         =  SHOW LAYOUT OF PARTITION CONTROL BLOCK          00022006
.*                      AND CODE                                        00023006
.*                      DSECT = YES  GIVES THE MAPPING OF THE PCB       00024006
.*                      DSECT = NO PRODUCES INLINE CODE FOR             00025006
.*                              DYNAMIC PARTITIONS                      00026006
.*                      DSECT = PCB GIVES ONLY PCB WITHOUT PCE          00027006
.*                      IF INCLUDED BY PLS :                            00028006
.*                      IF %PCBNDC = ';' SET BY CALLING PROGRAM, ONLY   00029006
.*                      PCB WITHOUT PCE IS GENERATED                    00030006
.*  NOTES            =  NONE                                            00031006
.*  DEPENDENCIES     =  NOTE THE THE FIRST PART (TILL PCBCEND) MUST BE  00032006
.*                      IDENTICAL TO FIRST PART OF CPCB                 00033006
.*  RESTRICTIONS     =  NONE                                            00034006
.*  REGISTER CONVENT.=  NONE                                            00035006
.*  PATCH LABEL      =  NONE                                            00036006
.*  MACRO TYPE       =  ASSEMBLER                                       00037006
.*  PROCESSOR        =  ASM                                             00038006
.*  MACRO SIZE       =  SEE OUTPUT                                      00039006
.*  ATTRIBUTES       =  MAPPING DSECT                                   00040006
.*  ENTRY POINT      =  &NAME OR PCBADR                                 00041006
.*  PURPOSE          =  SEE FUNCTION                                    00042006
.*  LINKAGE          =  SEE INPUT                                       00043006
.*  CALLER           =                                                  00044006
.*  INPUT            =                                                  00045006
.*                      &NAME    MAPPCB                                 00046006
.*                                                                      00047006
.*  OUTPUT           =  DSECT OF PCB OR INLINE CODE                     00048006
.*                                                                      00049006
.*  EXIT NORMAL      =  MACRO EXPANSION                                 00050006
.*                                                                      00051006
.*  EXIT ERROR       =  NONE                                            00052006
.*                                                                      00053006
.*  EXTERNAL REFEREN.=  NONE                                            00054006
.*  ROUTINES         =  NONE                                            00055006
.*  DATA AREAS       =  NONE                                            00056006
.*  CONTROL BLOCKS   =  NONE                                            00057006
.*  TABLES           =  NONE                                            00058006
.*  MACROS           =  NONE                                            00059006
.*  CHANGE ACTIVITIES=  NEW MACRO   FIRST RELEASE AF 1.4       @D14BDFG 00060006
.*                   =  EXTEND FOR FUTURE USE                  @D31BDMZ 00061006
.*  CHANGE 01        =  IAF HOOKS RELEASE AF 4.1.1             @D31ZDMZ 00062006
.*  CHANGE 02        =  UNATTENDED NODE SUPPORT AF 4.1.1       @D31LDMZ 00063006
.*  CHANGE 03        =  SCLP SUPPORT AF 4.1.2                  @D31EMMZ 00064006
.*  CHANGE 04        =  5.1 EXTENSIONS FOR CICS                @D51HDOW 00065006
.*  CHANGE 05        =  MORE PARTITION SUPPORT AF 5.1.0        @D51IDMZ 00066006
.*  CHANGE 06        =  31 BIT SUPPORT AF 5.2.0                @D52VDMZ 00067006
.*  CHANGE 07        =  AF 6.1.0 SUPPORT                       @D61NDMZ 00068006
.*  CHANGE 08        =  AF 6.1.0 COMPATIBILITY MODE            @D61ADMZ 00069006
.*  CHANGE 09        =  MORE THAN 255 TASKS                    @D66ODOW 00069113
.*  MODIFIED REGISTER=  NONE                                            00069206
.*                                                                      00069306
.** END OF SPECICATIONS *********************************************** 00069406
.*                                                                      00069506
         AIF   (T'&DSECT EQ 'O').PRDS                          @D51IDMZ 00069606
         AIF   ('&DSECT' EQ 'YES').PRDS                        @D51IDMZ 00069706
         AIF   ('&DSECT' EQ 'PCB').PRDS                        @D52VDMZ 00069806
         AIF   ('&DSECT' EQ 'NO').INLINE                       @D51IDMZ 00069906
.PRDS    ANOP                                                  @D51IDMZ 00070006
         AIF   (T'&NAME EQ 'O').NONAME                                  00071006
&LABEL   SETC  '&NAME'                                         @D31LDMZ 00072006
         AGO   .YESNAME                                                 00073006
.NONAME  ANOP                                                           00074006
&LABEL   SETC  'PCBADR'                                        @D31LDMZ 00075006
.YESNAME ANOP                                                           00076006
&LABEL   DSECT                                                          00077006
PCBLNGTH DS    H             TOTAL LENGTH OF PCB               @D14CDFG 00078006
PCBFLAG  DS    X             FLAG BYTE                         @D34UDFR 00079006
BALANCED EQU   X'80'           0  BALANCED PARTITION           @D34UDFR 00080006
PERACT   EQU   X'40'           1  PER ACTIVE FOR THIS PART.    @D14BDFG 00081006
SUPPRPFH EQU   X'20'           2  SUPPRESS PAGE FAULT HANDLING @D36IDFR 00082006
*                                   ON REQUEST OF LOAD LEVELING@DY43684 00083006
SUPPFTPI EQU   X'10'           3  SUPPRESS PAGE FAULT HANDLING @DY43684 00084006
*                                   ON REQUEST OF TPIN         @DY43684 00085006
PCBCLFLG EQU   X'08'           4  CLASS PCB                    @D51IDMZ 00086006
PCBMVSEM EQU   X'04'           5  MVS EMULATION MODE           @D61ADMZ 00087006
*                              6  RESERVED                     @D14CDFG 00088006
PWSRVFLG EQU   X'01'           7  SOME TASK WAITING FOR POWER  @D14CDFG 00089006
PCBFLAG1 DS    X             FLAG BYTE                         @D64ADOW 00090006
OPCANCLD EQU   X'80'         PARTITION CANCELED BY OPERATOR    @D64ADOW 00091006
PCBPMASK DS    F             PARTITIONS PRIORITY MASK          @D14BDFR 00092006
PCBANPCB DS    F             POINTS TO NEXT PCB IN SAME CLASS  @D51IDMZ 00093006
PCBID    DS    H             PCB ID RELATING TO CLASS          @D51IDMZ 00094006
PCB#SUBT DS    H             MAX NUMBER OF SUBTASKS IN PARTITIO@D66ODOW 00095013
PCBRCNT  DS    F             REACTIVATION COUNT                @D51IDRP 00096006
.*  PCBRCNT IS ONLY USED FOR LOAD LEVELLER STATISTICS, GENERATED        00097006
.*  BY &LOLEV                                                           00098006
RUNTIME  DS    F             TIME COUNTER FOR PBAL AND JA      @D14BDFR 00099006
PBALTIME DS    F             INITIAL VALUE OF PART.BAL.TIME    @D14BDFR 00100006
PCBJAPTR DS    F             PCB POINTER FOR TIME ACCOUNTING   @D14BDFR 00101006
PCBPIK   DS    H             PARTITION IDENTIFICATION KEY      @D14BDRP 00102006
PCBLCTSS DS    H             ACTIVE LENGTH CODE FOR TIDSTR     @D14BDFR 00103006
         DS    F             RESERVED                          @D66ODOW 00105013
PCBIMASK DS    F  *###       RESERVED FOR FUTURE USE           @D66ODOW 00107013
PCBCEND  EQU   *             END OF COMMON PART (PCB <-> CPCB) @D52VDMZ 00108006
TIDSTR   DS    32X           TABLE OF PRIORITY OWNER           @D36IDFR 00109006
PCBVRTAL DS    F             VIRT. ADDR OF PASN-AL OF PART.    @D52VDMZ 00110006
PCBNTASK DS    H             COUNTER OF USED SUBTASKS          @D14BDFR 00111006
CDLDTID  DS    H             TID OF CDLOAD OWNER WITHIN PART.  @D36IDFR 00112006
PCBPSCB  DS    A             SCB POINTER OF ALLOCATION SPACE   @D14NDFG 00113006
PCBASCB  DS    A             SCB POINTER OF ACTIVE SPACE       @D14NDFG 00114006
*------- BEGIN OF SMCB ---------------------------------------*         00115006
SMCBADR  DS    0F            BEGIN OF SMCB                     @D51IDMZ 00116006
.* THE FOLLOWING 4 FULLWORDS MUST STAY TOGETHER, SEQUENCE USED @D52VDMZ 00117006
.* DURING MOVE                                                 @D52VDMZ 00118006
SMAXPFIX DS    F             PART.:PFIX (24BIT) LIMIT IN PAGES @D52VDMZ 00119006
*                            SYST.:SVA(24) PFIX LIMIT IN PAGES @D52VDMZ 00120006
SMPFIX   DS    F             PART.:PFIX (24BIT) COUNT IN PAGES @D52VDMZ 00130006
*                            SYST.:SVA(24) PFIX COUNT IN PAGES @D52VDMZ 00131006
SMAXPFX3 DS    F             PART.:PFIX (31BIT) LIMIT IN PAGES @D52VDMZ 00132006
*                            SYST.:SVA(31) PFIX LIMIT IN PAGES @D52VDMZ 00133006
SMPFIX3  DS    F             PART.:PFIX (31BIT) COUNT IN PAGES @D52VDMZ 00134006
*                            SYST.:SVA(31) PFIX COUNT IN PAGES @D52VDMZ 00135006
.* THE PREVIOUS 4 FULLWORDS MUST STAY TOGETHER, SEQUENCE USED  @D52VDMZ 00136006
.* DURING MOVE                                                 @D52VDMZ 00137006
SMPSAVE  DS    F             PARTITION: SAVE AREA ADDRESS      @D14NDFG 00138006
PCBAPBEG EQU   SMPSAVE                                         @D14CDFG 00139006
SMVGVIS  DS    F             PARTITION: ADDRESS OF GETVIS AREA @D35EDUL 00140006
SMVPBEG  DS    F             PARTITION: VIRTUAL BEGIN ADDRESS  @D35EDUL 00141006
SMVPEND  DS    F             PARTITION: VIRTUAL END ADDRESS+1  @D35EDUL 00142006
SMRPBEG  DS    F             PARTITION: REAL BEGIN ADDRESS     @D14BDRP 00143006
SMRPEND  DS    F             PARTITION: REAL END ADDRESS + 1   @D14BDRP 00144006
SMCBLNG  EQU   *-SMAXPFIX    LENGTH OF SMCB                    @D35EDUL 00145006
*------- END OF SMCB -----------------------------------------*         00146006
PCBAPEND DS    F             END ADDRESS+1 OF USER KEY AREA    @D14BDFD 00147006
PCBSSCNT DS    X             SUBSYSTEM COUNTER WITHIN PART.    @D35XDFG 00148006
PCBSSFL2 DS    X             FLAGS FOR SUBSYSTEM PROPERTIES    @D31LDMZ 00149006
PCBARIPL EQU   X'80'         REIPL MACRO ALLOWED BY SUBSYSTEM  @D31LDMZ 00150006
PCBSSFL1 DS    X             SUBSYSTEM FLAG BYTE               @D14CDFG 00151006
USESYS   EQU   X'80'           0  USER SUB SYSTEM              @D51IDMZ 00152006
IBMSYS   EQU   X'40'           1  IBM SUBSYSTEM                @D51IDMZ 00153006
PSFV     EQU   X'20'           2  PRINTER SUPPORT FACILITY     @D31IDMZ 00154006
DSNX     EQU   X'10'           3  DSNX PARTITION               @D31EMMZ 00155006
ICKDSF   EQU   X'08'           4  DEVICE SUPPORT FACILITY      @D31LDGN 00156006
CUSTOM   EQU   X'04'           5  CUSTOMIZATION SERVICE        @D31LDGN 00157006
NETVIEW  EQU   X'02'           6  NETVIEW PARTITION            @D31LDGN 00158006
NPDA     EQU   X'01'           7  NPDA PARTITION               @D14CDFG 00159006
PCBSSFLG DS    X             SUBSYSTEM FLAG BYTE               @D35XDFG 00160006
PWR      EQU   X'80'           0  POWER PARTITION              @D36ZDFG 00161006
VTAM     EQU   X'40'           1  VTAM PARTITION               @D36ZDFG 00162006
ICCF     EQU   X'20'           2  ICCF PARTITION               @D36ZDFG 00163006
CICS     EQU   X'10'           3  CICS PARTITION               @D36ZDFG 00164006
VCNA     EQU   X'08'           4  VCNA PARTITION               @D37CDFG 00165006
OCCF     EQU   X'04'           5  OCCF PARTITION               @D37CDFG 00166006
DS2      EQU   X'02'           6  DS2  PARTITION               @D37CDFG 00167006
SSX      EQU   X'01'           7  IUI FUNCTION ACTIVE          @D37CDAP 00168018
CHPTENT  DS    0XL6          CHECKPOINT-PFIX ENTRY             @D36IDFR 00169006
CHPTPAGE DS    F             1ST CHKPT.PAGE NOT YET HANDL.     @D36IDFR 00170006
CHPTCNT  DS    H             REMAIN.NUMB.OF PFIXED PAGES       @D36IDFR 00171006
PCBSSFL3 DS    X             SUBSYSTEM FLAG BYTE               @D64ADMZ 00172006
PCBSSFL4 DS    X             SUBSYSTEM FLAG BYTE               @D64ADMZ 00172106
SECS     EQU   X'01'           7  SECURITY SERVER              @D64ADMZ 00172206
TSER     EQU   X'02'           6  VIRTUAL TAPE SERVER          @D66VDAP 00172318
PCBOCPTR DS    F             POINTER TO OC EXIT CONTROL BLOCK  @D62ADOW 00172518
         DS    CL24          RESERVED                          @D62NDOW 00172618
PCPUTIME DS    2F            PARTITION CPU TIME COUNTER        @D14BDFR 00172718
POVHTIME DS    2F            PARTITION OVERHEAD TIME COUNTER   @D14BDFR 00172818
PBNDTIME DS    2F            PARTITION ALLBOUND TIME COUNTER   @D14BDFR 00172918
PCBRQ    DS    0X                                              @D14BDFR 00173018
SRQGTV   DS    8X            GETVIS RESOURCE GATE              @D14BDFR 00173118
         ORG   *-2                                             @D66ODOW 00173218
PCBRQGTV DS    XL2           GETVIS RESOURCE GATE              @D66ODOW 00174013
SRQCDL   DS    8X            CDLOAD RESOURCE GATE              @D14BDFR 00175006
         ORG   *-2                                             @D66ODOW 00176013
PCBRQCDL DS    XL2           CDLOAD RESOURCE GATE              @D66ODOW 00177013
SRQPFX   DS    8X            PFIX RESOURCE GATE                @D14BDFR 00178006
         ORG   *-2                                             @D66ODOW 00179013
PCBRQPFX DS    XL2           PFIX RESOURCE GATE                @D66ODOW 00180013
SRQIVMTS DS    8X            GATE TASKS BELONGING TO....       @D31ZDMZ 00181006
         ORG   *-2                                             @D66ODOW 00182013
PCBRQIVM DS    XL2           ... THE SAME PARTITION            @D66ODOW 00183013
SRQDYSGV DS    8X            SPACE GETVIS RESOURCE GATE        @D51IDMZ 00184006
         ORG   *-2                                             @D66ODOW 00185013
PCBRQDYG DS    XL2           SPACE GETVIS RESOURCE GATE        @D66ODOW 00186013
SRQPTERM DS    8X            DUMP GATE                         @D52VDMZ 00187006
         ORG   *-2                                             @D66ODOW 00188013
PCBRQTRM DS    XL2                                             @D66ODOW 00189013
PCBCNT   DS    F             ADDRESS OF USAGE AND SIO COUNTERS @D14BDFG 00190006
PCBAPHOT DS    F             ADDRESS OF PHO TIB                @D51IDMZ 00191006
         DS    F             UNUSED                            @D31LDMZ 00192006
FIXTIB   DS    F             TIB OF PFIX/GETREAL REQUESTOR 370 @D36IDFR 00193006
PFTERSVD DS    F             PFTE ADDRESS OF RESERVED PF   370 @D36IDFR 00194006
FIXTYPE  DS    X             TYPE OF PFIX REQUEST          370 @D36IDFR 00195006
GTRBIT   EQU   X'80'           GETREAL REQUEST             370 @D36IDFG 00196006
GTRSBIT  EQU   GTRBIT+X'04'    IND. FOR SPECIAL GETREAL REQUEST@D52VDMZ 00197006
RSTRTBIT EQU   X'40'           RESTART REQUEST             370 @D36IDFG 00198006
DATOFF   EQU   X'20'           CALLED WITH DAT OFF             @D52VDMZ 00199006
SVC55BIT EQU   X'10'           GETREAL CALLED BY SVC 55    370 @D52VDMZ 00200006
         DS    2X            RESERVED                          @D14NDFG 00201006
PCBVTCNT DS    X             TASKS WITH OPEN VTAM ACB'S   VTAM @D36ZDFG 00202006
PCBIVMPT DS    F             PTR TO PARTITION IAF CONTROL BLOCK@D31ZDMZ 00203006
PCBDYSPC DS    F             PTR TO DYN.SPACE GETVIS CONTROL INFO.     *00204006
                             USED FOR DYNAMIC PARTITIONS ONLY  @D51IDMZ 00205006
PCBPSPID DS    0CL8          DEFAULT SUBPOOL ID FOR STATIC OR DYNAMIC  *00206006
                             PARTITIONS IN SVA                 @D51IDMZ 00207006
         DS    CL6           SUBPOOL NAME                      @D51IDMZ 00208006
PCBPSPIN DS    H             SUBPOOL INDEX                              00209006
PCBASTE  DS    F             VIRTUAL ADDRESS OF ASTE           @D52VDMZ 00210006
PCBASTER DS    F             REAL ADDRESS OF ASTE              @D52VDMZ 00211006
PCBACPCB DS    F             ADDR OF CLASSPCB. FOR STATIC PARTITONS ITS*00212006
                             THE ADDRESS OF THE PCB            @D51IDMZ 00213006
PCBAPPCB DS    F             POINTS TO PREVIOUS PCB IN SAME CL.@D51IDMZ 00214006
PCBCMASK DS    F             POSITION OF PARTITON WITHIN CLASS @D51IDMZ 00215006
PCBSADMP DS    X             PRTY OF PARTITION WHEN PRINTING SA DUMP,  *00216006
                             SPECIFIED IN OPTION SADUMP        @D51IDMZ 00217006
PCBGVFLG DS    X             PARTITION  GETVIS FLAGS           @D52VDMZ 00218006
PCBSTLMT EQU   X'80'         SETLIMIT SIZE SPECIFIED           @D52VDMZ 00219006
PCBSADM1 DS    X             PTRY FOR DATA SPACE DUMP          @D52VDMZ 00220006
         DS    X             RESERVED                          @D51IDMZ 00221006
PCBSGRAD DS    F             SGETVIS/SFREEVIS RETURN ADDRESS   @D51IDMZ 00222006
PCBREPQ  DS    2F            REPLICA QUEUE HEADER              @D51IDMZ 00223006
PCBTSIO  DS    F             TOTAL SIO COUNT SINCE IPL         @D51IDMZ 00224006
PCBASIO  DS    F             TOTAL SIO UP TO LAST ACCT. INTERV.@D51IDMZ 00225006
PCBNFSTR DS    F             STRT ADDR OF NON FIXED CNTR.BLOCKS@D51IDMZ 00226006
* PFIX/PFREE AREA                                              @D51IDMZ 00227006
PCBRPCBG DS    F             BEGIN ADDR OF CURRENT PFIX AREA   @D52VDMZ 00228006
PCBRPCED DS    F             END ADDR OF CURRENT PFIX AREA     @D52VDMZ 00229006
PCBRPCNO DS    F             CURRENT NUMBER OF PFIX            @D52VDMZ 00230006
PCBRPCMX DS    F             CURRENT MAXIMUM NUMBER OF PFIX    @D52VDMZ 00231006
PCBPXLST DS    A             ADDRESS OF PFIX PARAMETER LIST    @D52VDMZ 00232006
PCBPGSER DS    0F            FUNCTION AND OPTIONS              @D52VDMZ 00233006
PCBPXREQ DS    X             REQUEST BYTE                      @D52VDMZ 00234006
PCBPXFRM EQU   X'80'         ADDRESSING MODE OF REQUESTOR      @D52VDMZ 00235006
PCBPXERR EQU   X'40'         ERROR INDICATION                  @D52VDMZ 00236006
*        EQU   X'20'         RESERVED                          @D52VDMZ 00237006
*        EQU   X'10'         RESERVED                          @D52VDMZ 00238006
*        EQU   X'08'         RESERVED                          @D52VDMZ 00239006
PCBPXDOF EQU   X'04'         PFREE CALLED BY PFIX              @D52VDMZ 00240006
PCBPXRET EQU   X'02'         PFIX WITH RETURN                  MD61NDMZ 00241006
PCBPXNOG EQU   X'01'         SVA PFIX WITHOUT GATE HANDLING    @D52VDMZ 00242006
PCBPXOPT DS    X             OPTION BYTE                       @D52VDMZ 00243006
PCBPXABO EQU   X'80'         PFIX ABOVE 16 MB                  @D52VDMZ 00244006
*        EQU   X'40'         RESERVED                          @D52VDMZ 00245006
*        EQU   X'20'         RESERVED                          @D52VDMZ 00246006
*        EQU   X'10'         RESERVED                          @D52VDMZ 00247006
*        EQU   X'08'         RESERVED                          @D52VDMZ 00248006
PCBPXAR1 EQU   X'04'         1 = PFIX 24 BIT AREA              @D52VDMZ 00249006
PCBPXAR2 EQU   X'02'         1 = ALLOC R AREA                  @D52VDMZ 00250006
PCBPXAR3 EQU   X'01'         1 = PFIX 31 BIT AREA              @D52VDMZ 00251006
         DS    X             RESERVED                          @D52VDMZ 00252006
PCBPXFCT DS    X             FUNCTION BYTE                     @D52VDMZ 00253006
*        EQU   X'80'         RESERVED                          @D52VDMZ 00254006
*        EQU   X'40'         RESERVED                          @D52VDMZ 00255006
*        EQU   X'20'         RESERVED                          @D52VDMZ 00256006
*        EQU   X'10'         RESERVED                          @D52VDMZ 00257006
*        EQU   X'08'         RESERVED                          @D52VDMZ 00258006
*        EQU   X'04'         RESERVED                          @D52VDMZ 00259006
PCBPXFRE EQU   X'02'         PFREE REQUEST                     @D52VDMZ 00260006
PCBPXFIX EQU   X'01'         PFIX REQUEST                      @D52VDMZ 00261006
PCBAPOSL DS    F             ADDR OF POSL OF PART-FOR SWAPPING @D52VDMZ 00262006
PCBARPSL DS    F             ADDR OF RPSL OF PART-FOR SWAPPING @D52VDMZ 00263006
PCBSAAPT DS    F             ADDR OF ALLOCATED SAACOMM         @D52VDMZ 00264006
PCBMSAAE EQU   X'80'         MASTER SAACOMM ALLOCATED TO PART. @D52VDMZ 00265006
PCBUCNTL DS    F             POINTER TO USER CONTROL BLOCK     @D52VDMZ 00266006
PCBNXGNP DS    F             NUMBER USED FOR GEN. OF DS NAME   @D52VDMZ 00267006
PCBCNTDS DS    F             NUMBER OF OWNED DATA SPACES       @D52VDMZ 00268006
PCBPICNT DS    F             NO OF PAGE IN PER PART.           @D52VDMZ 00269006
PCBTOKEN DS    F             UNIQUE ID OF DYN. PART.           @D52VDMZ 00270006
PCBATRAX DS    F             ADDRESS OF TRACE TABLE            @D61HDMZ 00271006
PCBCR09  DS    F             CONTROL REGISTER 9                @D61HDMZ 00272006
PCBCR10  DS    F             CONTROL REGISTER 10               @D61HDMZ 00273006
PCBCR11  DS    F             CONTROL REGISTER 11               @D61HDMZ 00274006
PCBDSPAC DS    F             DSPACE SET BY EXEC                @D61NDMZ 00275006
PCBTSCP  DS    F             ADDRESS OF RELATED TSCP           @D61NDMZ 00276006
PCBAPCBX DS    F             ADDR OF PCB EXTENSION             @D61ADMZ 00277006
         DS    F             RESERVED FOR FUTURE USE           @D61ADMZ 00278006
PCBPOEXQ DS    F             PTR TO POST EXIT QUEUE            @D61ADMZ 00279006
         DS    F             RESERVED FOR FUTURE USE           @D61NDMZ 00280006
         DS    F             RESERVED FOR FUTURE USE           @D61NDMZ 00281006
         DS    F             RESERVED FOR FUTURE USE           @D61NDMZ 00282006
         AIF   ('&DSECT' EQ 'PCB').SKPCE                       @D52VDMZ 00283006
         MAPPCE DSECT=INLINE  INCLUDE PCE CONTROL BLOCK        @D51IDMZ 00284006
SPCBLNG  EQU   *-&LABEL      LENGTH OF SYSTEM PCB              @D36ZDFG 00285006
PCBVMLNG EQU   *-&LABEL      LENGTH OF PCB FOR VM              @D14ZDJB 00286006
PCBLNG   EQU   *-&LABEL      LENGTH OF PCB                     @D14CDFG 00287006
         AGO   .SKPCE1                                         @D52VDMZ 00288006
.SKPCE   ANOP                                                  @D52VDMZ 00289006
SSPCBLNG EQU   *-&LABEL      LENGTH OF SYSTEM PCB (W/O PCE)    @D52VDMZ 00290006
SPCBVMLG EQU   *-&LABEL      LENGTH OF PCB FOR VM (W/O PCE)    @D52VDMZ 00291006
SPCBLNG  EQU   *-&LABEL      LENGTH OF PCB        (W/O PCE)    @D52VDMZ 00292006
.SKPCE1  ANOP                                                  @D52VDMZ 00293006
*------- END OF PCB ------------------------------------------*         00294006
         MEXIT                                                          00295006
.* *********************************************************            00296006
.* INLINE CODE FOR DEFAULT PCB FOR DYNAMIC PARTITIONS                   00297006
.* *********************************************************            00298006
.INLINE  ANOP                                                  @D51IDMZ 00299006
DPPCB    DC    0D'0'                                           @D51IDMZ 00300006
         DC    AL2(PCBLNG)        PCB LENGTH                   @D51IDMZ 00301006
         DC    B'00000000'        PCBFLAG                      @D51IDMZ 00302006
         DC    X'00'              RESERVED                     @D51IDMZ 00303006
         DC    F'0'               PARTITIONS PRIORITY MASK     @D51IDMZ 00304006
         DC    F'0'               ADDR OF NEXT PCB IN CLASS    @D51IDMZ 00305006
         DC    AL2(0)             PCBID RELATING TO CLASS      @D51IDMZ 00306006
         DC    AL2(31)            MAX NUMBER OF SUBTASKS       @D66ODOW 00307013
         DC    F'0'               REACTIVATION COUNT           @D51IDMZ 00308006
         DC    F'0'               TIME COUNTER FOR PBAL AND JA @D51IDMZ 00309006
         DC    F'0'               INITIAL VALUE OF PBAL TIME   @D51IDMZ 00310006
         DC    A(0)               POINTER FOR TIME ACCOUNTING  @D51IDMZ 00311006
         DC    AL2(0)             PARTITION PIK                @D51IDMZ 00312006
         DC    H'0'               ACTIVE LENTHCODE OF TIDSTR   @D51IDMZ 00313006
         DC    F'0'               RESERVED                     @D66ODOW 00314013
         DC    X'80000000'   *### PCBIMASK                     @D66ODOW 00315020
         DC    32X'00'            TASK IDENTIFIERS             @D51IDMZ 00316006
         DC    F'0'               VIRT. ADDR OF PASN-AL FOR PA.@D52VDMZ 00317006
         DC    H'0'               NUMBER OF SUBTASKS           @D51IDMZ 00318006
         DC    H'0'               ID OF CDLD OWNER             @D51IDMZ 00319006
         DC    A(0)               A(SCB OF ALLOCATION SPACE)   @D51IDMZ 00320006
         DC    A(0)               A(SCB OF ACTIVE SPACE)       @D51IDMZ 00321006
DPSMCB   DS    0F                                              @D51IDMZ 00322006
         DC    2F'0'              PART. PFIX (24BIT) COUNTERS  @D52VDMZ 00323006
         DC    2F'0'              PART. PFIX (31BIT) COUNTERS  @D52VDMZ 00324006
         DC    F'0'               MAINTASK SAVEAREA ADDRESS    @D51IDMZ 00325006
         DC    F'0'               PARTITION GETVIS AREA ADDRESS@D51IDMZ 00326006
         DC    F'0'               BEG.ADDR.OF VIRT.PARTITION   @D51IDMZ 00327006
         DC    F'0'               END ADDR.OF VIRT.PARTITION   @D51IDMZ 00328006
         DC    F'0'               BEG.ADDR.OF REAL PARTITION   @D51IDMZ 00329006
         DC    F'0'               END ADDR.OF REAL PARTITION   @D51IDMZ 00330006
         DC    F'0'               END ADDR.+1 OF USER KEY AREA @D51IDMZ 00331006
         DC    X'00'              SUBSYSTEM COUNTER            @D51IDMZ 00332006
         DC    X'00'              SUBSYSTEM PROPERTIES FLAG BYT@D51IDMZ 00333006
         DC    X'0000'            SUBSYSTEM FLGA BYTES         @D51IDMZ 00334006
         DC    F'0'               1ST CHKPT.PAGE NOT YET HANDL.@D51IDMZ 00335006
         DC    H'0'               REMAIN.NUMB.OF PFIXED PAGES  @D51IDMZ 00336006
         DC    H'0'               SUBSYSTEM FLAG BYTES         @D64ADMZ 00337006
         DC    F'0'               ADDR OF OC EXIT BLOCK        @D62ADOW 00338006
         DC    6F'0'              RESERVED                     @D62ADOW 00339006
         DC    6F'0'              ACCOUNTING TIME COUNTERS     @D51IDMZ 00340006
         DC    X'80',AL3(*-1),AL1(GTVBND),AL1(PARTQ)           @D51IDMZ 00341006
         DC    AL1(FREEBIT),X'0'                               @D66ODOW 00342013
         DC    X'80',AL3(*-1),AL1(CDLBND),AL1(PARTQ)           @D51IDMZ 00343006
         DC    AL1(FREEBIT),X'0'                               @D66ODOW 00344013
         DC    X'80',AL3(*-1),AL1(PFXBND),AL1(PARTQ)           @D51IDMZ 00345006
         DC    AL1(FREEBIT),X'0'                               @D66ODOW 00346013
         DC    X'80',AL3(*-1),AL1(IVMTSBND),AL1(PARTQ+NORDY)   @D51IDMZ 00347006
         DC    AL1(FREEBIT),X'0'                               @D66ODOW 00348013
         DC    X'80',AL3(*-1),AL1(DYSGVBND),AL1(PARTQ)         @D51IDMZ 00349006
         DC    AL1(FREEBIT),X'0'                               @D66ODOW 00350013
         DC    X'80',AL3(*-1),AL1(PTERMBND),AL1(PARTQ)         @D52VDMZ 00351006
         DC    AL1(FREEBIT),X'0'                               @D66ODOW 00352013
         DC    F'0'               ADDR.OF USAGE AND SIO CNTRS  @D51IDMZ 00353006
         DC    A(0)               ADDR OF PHO TIB              @D51IDMZ 00354006
         DC    F'0'               UNUSED                       @D51IDMZ 00355006
         DC    2F'0',X'00'        FIELDS USED BY PFIX ROUT.    @D51IDMZ 00356006
         DC    2X'00'             RESERVED                     @D51IDMZ 00357006
         DC    X'00'              TASKS WITH OPEN VTAM ACB'S   @D51IDMZ 00358006
         DC    F'0'               PTR TO PARTITION ZILLE CB    @D51IDMZ 00359006
         DC    F'0'               PTR TO DYN.SP.GETVIS CONTR.I.@D51IDMZ 00360006
         DC    CL6' ',H'0'        SUBPOOL NAME AND INDEX       @D51IDMZ 00361006