*%GOTO PUBXPLS;  /* PLS COMMENT TO AVOID UNMATCHED QUOTE PROB  @DY45299 00001000
         MACRO                                                          00002000
&NAME    MAPPUBX                                                        00003000
         GBLB  &IJBSGEN           SUPERVISOR GENERATION                 00004000
         LCLB  &VSE280            RELEASE LEVEL INDICATION     @DAOM053 00005000
         LCLC  &LAB               VARIABLE FOR LABEL           @D21IDAP 00006000
&VSE280  SETB  1                                               @D68ADAP 00007000
.*       IBM DISK OPERATING SYSTEM                            *         00008000
*        SUPERVISOR - MAPPUBX - 5686-CF7-06                   *         00009000
         AGO   .ZZZ                                           *         00010000
*        LICENSED MATERIALS-PROPERTY OF IBM                   *         00011000
*        THIS MACRO IS "RESTRICTED MATERIALS OF IBM"          *         00012000
*        5686-007 (C) COPYRIGHT IBM CORP. 1981, 2005          *         00013490
*        SEE COPYRIGHT INSTRUCTIONS                           *         00014000
.ZZZ     ANOP                                                 *         00015000
.**** START OF SPECIFICATIONS *********************************         00016000
.*                                                                      00017000
.*01* MODULE-TYPE = MACRO                                               00018000
.*                                                                      00019000
.*01* DESCRIPTIVE NAME = MAPPING OF PUBX                                00020000
.*                                                                      00021000
.*  STATUS           =  NEW MACRO - FIRST RELEASE AF 2.1                00022000
.*                                                                      00023000
.*  FUNCTION         =  SHOW LAYOUT OF PHYS.UNIT BLOCK EXTENSION        00024000
.*  NOTES            =  NONE                                            00025000
.*  DEPENDENCIES     =  NONE                                            00026000
.*  RESTRICTIONS     =  NONE                                            00027000
.*  REGISTER CONVENT.=  NONE                                            00028000
.*  PATCH LABEL      =  NONE                                            00029000
.*  MACRO TYPE       =  ASSEMBLER                                       00030000
.*  PROCESSOR        =  ASM                                             00031000
.*  MACRO SIZE       =  SEE OUTPUT                                      00032000
.*  ATTRIBUTES       =  MAPPING DSECT                                   00033000
.*  ENTRY POINT      =  NONE                                            00034000
.*  PURPOSE          =  SEE FUNCTION                                    00035000
.*  LINKAGE          =  SEE INPUT                                       00036000
.*  CALLER           =                                                  00037000
.*  INPUT            =                                                  00038000
.*                      &NAME    MAPPUBX                                00039000
.*                                                                      00040000
.*  OUTPUT           =  DSECT OF PUBX                                   00041000
.*                                                                      00042000
.*  EXIT NORMAL      =  MACRO EXPANSION                                 00043000
.*                                                                      00044000
.*  EXIT ERROR       =  NONE                                            00045000
.*                                                                      00046000
.*  EXTERNAL REFEREN.=  NONE                                            00047000
.*  ROUTINES         =  NONE                                            00048000
.*  DATA AREAS       =  NONE                                            00049000
.*  CONTROL BLOCKS   =  NONE                                            00050000
.*  TABLES           =  NONE                                            00051000
.*  MACROS           =  NONE                                            00052000
.*  CHANGE ACTIVITIES=  NEW MACRO   FIRST RELEASE AF 2.1                00053000
.*  MODIFIED REGISTER=  NONE                                            00054000
.*                                                                      00055000
.*  A000000-999999                                             @D14BDFG 00056000
.*  DEVICE-ID INFORMATION INCORPORATED                         @D14SSX2 00057000
.*  OS DEVICE TYPE CODE   INCORPORATED                         @D21IDAP 00058000
.*  TAPE DEVICE SUPPORT                        (SPE DY37265)   @D21LDAP 00059000
.*  ECKD DEVICE SUPPORT                                        @D51EDAP 00060000
.*  31-BIT REAL AND XA I/O SUPPORT                             @D51GDAP 00061000
.*  PATH MANAGEMENT SUPPORT                                    @D52VDAP 00062000
.*  ADD PBXTERP1 TO INDICATE RESIDENT TAPE ERP WILL BE USED    @DY44241 00063000
.*  ATTENTION EXIT SUPPORT                                     @D62OSAP 00064000
.*  DEFINE A BIT FOR ONLINE,HOLD COMMAND                       @DY44841 00065000
.*  DEFINE A BIT FOR 3570 DEVICE                               @DY45299 00066000
.*  PROVIDE BIT FOR FLASH-COPY CAPABILITY                      @DY45385 00067000
.*  DEFINE A BIT FOR READ-ONLY ACCESS                          @DY45462 00068000
.*  PROVIDE PUBX MAPPING FOR QDIO DEVICES                      @D66EDAP 00069000
.*  PROVIDE MIH PROCESSING INFORMATION                         @D67BDAP 00070000
.*  PROVIDE 3590 DEVICE SPECIFIC INFORMATION                   @DY45988 00071000
.*  PROVIDE 3592 DEVICE SPECIFIC INFORMATION                   @D43592  00072000
.*  PROVIDE PBXASINT FLAG, NO ASSIGN YET                       @DY46592 00072500
.*                                                                      00073000
.** END OF SPECICATIONS *********************************************** 00074000
.*                                                                      00075000
         AIF   (&IJBSGEN).NOWARN                               @D14ZDFG 00076000
*********************************************************************** 00077000
* WARNING: THE FOLLOWING MAPPING REFERS TO AN INTERNAL SUPERVISOR     * 00078000
*          CONTROL BLOCK. IT MAY CHANGE ANY TIME AND IS NOT COMMITTED * 00079000
*          AS AN INTERFACE OF ANY LEVEL.                              * 00080000
*********************************************************************** 00081000
.NOWARN  ANOP                                                  @D14ZDFG 00082000
         AIF   (T'&NAME NE 'O').NAME                           @D21IDAP 00083000
&LAB     SETC  'PBXADR'                                        @D21IDAP 00084000
         AGO   .HAVNAM                                         @D21IDAP 00085000
.NAME    ANOP                                                           00086000
&LAB     SETC  '&NAME'                                         @D21IDAP 00087000
.HAVNAM  ANOP                                                  @D21IDAP 00088000
&LAB     DSECT                                                          00089000
PBXFLAG  DS    X                  FLAG BYTE                             00090000
PBXDASD  EQU   X'80'                0  DASD DEVICE                      00091000
PBXTAPE  EQU   X'40'                1  TAPE DEVICE                      00092000
PBXUR    EQU   X'20'                2  UNIT RECORD DEVICE               00093000
*        EQU   X'10'                3  RESERVED                         00094000
PBXSCSI  EQU   X'08'                4  DEVICE IS A SCSI DEVICE @D27ADAP 00095000
PBXMSSDV EQU   X'04'                5  MASS STORAGE DEVICE     @D52VDAP 00096000
PBXFBAVD EQU   X'02'                6  DEVICE IS A VIRTUAL FBA @D52HDAP 00097000
PBXSLOG  EQU   X'01'                7  SYSLOG DEVICE                    00098000
PBXFLAG1 DS    X                  FLAG BYTE 1                           00099000
PBXSHR   EQU   X'80'                0  PARTITION SHARABLE DEV.          00100000
PBXRONLY EQU   X'40'                1  DASD: READ ONLY DEVICE  @DY45462 00101000
*                                   1  TAPE: READ ONLY         @D68ADAP 00102000
*                                   1  UR:   RESERVED          @DY45462 00103000
PBXBUFFD EQU   X'20'                2  BUFFERED DEVICE         @D21BDOW 00104000
*                                   2  DASD: TRACK CACHING     @D31JDAP 00105000
PBXFEAT1 EQU   X'10'                3  TAPE: DATA COMPACTION   @D31JDAP 00106000
*                                   3  DASD: DASD FAST WRITE   @D31JDAP 00107000
*                                   3  UR:   RESERVED          @D31JDAP 00108000
PBXFEAT2 EQU   X'08'                4  TAPE: AUTO BLOCKING     @D31JDAP 00109000
*                                   4  DASD: CACHE FAST WRITE  @D52VDAP 00110000
*                                   4  UR:   RESERVED          @D52VDAP 00111000
PBXFEAT3 EQU   X'04'                5  TAPE: LIBRARY ONLINE    @D61ADAP 00112000
*                                   5  DASD: DUAL COPY CAPABLE @D52VDAP 00113000
*                                   5  UR:   RESERVED          @D52VDAP 00114000
PBXNORDB EQU   X'02'                6  TAPE: NO READ BACKWARDS @D31KMAP 00115000
PBXFLCPY EQU   X'02'                6  DASD: FLASH COPY FEATURE@DY45385 00116000
*                                   6  UR:   RESERVED          @D52VDAP 00117000
PBXDBCCW EQU   X'01'                7  TAPE: MODE SET WITH DATA@D21FDAP 00118000
*                                   7  DASD: RESERVED          @D52VDAP 00119000
*                                   7  UR:   RESERVED          @D52VDAP 00120000
PBXFLAG2 DS    X                  FLAG BYTE 2 DEVICE STATUS    @D21BDOW 00121000
PBXNOSIO EQU   X'80'                0  SIO NEEDS INTERCEPTION  @D21LDAP 00122000
PBXMTFLG EQU   X'40'                1  MOUNT REQUEST PENDING   @D21LDAP 00123000
PBXNOSVT EQU   X'20'                2  BYPASS AVR PROCESSING   @D52VDAP 00124000
PBXNOASS EQU   X'10'                3  BYPASS ASSGN PROCESSING @D52VDAP 00125000
PBXNOVOL EQU   X'08'                4  VOL1 LABEL NOT YET READ @D21LDAP 00126000
PBXSMFAC EQU   X'04'                5  VSE MEASUREMENT ACTIVE  @DY44680 00127000
PBXPPOFF EQU   X'02'                6  DEVICE HAS BEEN OFFLINED@D51TDAP 00128000
PBXREADY EQU   X'01'                7  DEVICE BECAME READY     @D21LDAP 00129000
PBXFLAG3 DS    X                  FLAG BYTE 3 RESERVED         @D21BDOW 00130000
PBXF3PVT EQU   X'80'                0  PATH VERIFICATION REQ.  @D51EDAP 00131000
PBXF3ASN EQU   X'40'                1  H/W ASSIGN PROCESSING   @D52VDAP 00132000
PBXF3VOL EQU   X'20'                2  VOL1 PROCESSING         @D52VDAP 00133000
PBXF3ASP EQU   X'10'                3  ASYNC STATUS PROCESSING @D52VDAP 00134000
PBXF3INS EQU   X'08'                4  DEVICE INSTALL PROC.    @D52VDAP 00135000
PBXTERP1 EQU   X'04'                5  USE RESIDENT TAPE ERP   @DY44241 00136000
PBXONHLD EQU   X'02'                6  ONLINE HOLD WAS ISSUED  @DY44841 00137000
PBXASINT EQU   X'01'                7  ASSIGN INTERCEPT        @DY46592 00138490
         SPACE ,                                               @D52VDAP 00139000
PBXCUU   DS    H                  CUU ADDRESS                  @D14SSX2 00140000
PBXSCH   DS    H                  XA SUBCHANNEL                @D51GDAP 00141000
         SPACE ,                  DOUBLEBOUNDARY               @D52VDAP 00142000
PBXLEN   DS    H                  LENGTH OF PUBX ENTRY         @D61NDAP 00143000
PBXVTMCQ DS    H                  SAVED CHANQ INDEX FOR TP DEV.@D52VDAP 00144000
         ORG   PBXVTMCQ           OVERLAY                      @D66EDAP 00145000
         DS    H                  RESERVED FOR NON TP-DEVICES  @D66EDAP 00146000
.*       PATH MANAGEMENT INFORMATION                           @D53XDAP 00147000
         SPACE ,                                               @D52VDAP 00148000
PBXCHPID DS    CL8                CHANNEL PATH IDS             @D52VDAP 00149000
PBXDVNED DS    CL17               INITIAL DEVICE NED           @D52VDAP 00150000
         ORG   PBXDVNED           OVERLAY                      @D68REEF 00151000
PBXACONF DS    A                  CONFIGURATION RECORD ADDRESS @D68REEF 00152000
         DS    A                  RESERVED                     @D68REEF 00153000
         DS    A                  RESERVED                     @D68REEF 00154000
PBXLPMT  DS    X                  XA LOGICAL PATH MASK PP+NP   @D88REEF 00155000
PBXLPNP  DS    X                  XA NON-PREFERRED PATH MASK   @D88REEF 00156000
PBXPSBY  DS    X                  XA STAND-BY PATH MASK        @D88REEF 00157000
         DS    X                  RESERVED                     @D88REEF 00158000
         DS    X                  RESERVED                     @D88REEF 00159000
PBXPIM   DS    X                  XA PATH INSTALLED MASK       @D52VDAP 00160000
PBXPAM   DS    X                  XA PATH AVAILABLE MASK       @D52VDAP 00161000
PBXLPM   DS    X                  XA LOGICAL PATH MASK PP      @D52VDAP 00162000
         SPACE ,                  DOUBLEBOUNDARY               @D52VDAP 00163000
PBXNOOPR DS    X                  NOT OPERATIONAL BY OPERATOR  @D52VDAP 00164000
PBXNOQSD DS    X                  NOT OPERATIONAL BY QUIESCED  @D52VDAP 00165000
PBXNOPVF DS    X                  NOT OPERATIONAL BY PATH VRFY.@D52VDAP 00166000
PBXNOERP DS    X                  NOT OPERATIONAL BY ERP       @D52VDAP 00167000
.*                                                             @D52VDAP 00168000
PBXPVPEN DS    X                  PATH VERIFICATION PENDING    @D52VDAP 00169000
PBXATTNR DS    X                  CHPID MASK FOR RECEIVED      @D52VDAP 00170000
*                                 ATTENTION INTERRUPTS.        @D52VDAP 00171000
PBXLPMSV DS    X                  LPM MASK SAVE AREA           @D52BDAP 00172000
PBXERRCP DS    X                  CHPID-ID OF LAST PATH        @D52BDAP 00173000
PBXRCDCC DS    X                  RCD COMMAND WORD             @D52XDAP 00174000
PBXRCDLN DS    XL2                RCD COMMAND COUNT BYTE       @D52BDAP 00175000
PBXRCDPI DS    X                  RCD PATH INFO                @D52BDAP 00176000
PBXRCDCA DS    XL1                CHANNEL CONNECTION ADDRESS   @D61ADAP 00177000
PBXRCDDC DS    XL1                DEVICE CONNECTION ADDRESS    @D61ADAP 00178000
PBXMIHFL DS    XL1                MIH PROCESSING FLAG          @D67BDAP 00179000
PBXNOMIH EQU   X'80'              ON   SKIP MIH PROCESSING     @D67BDAP 00180000
*                                 OFF  DO MIH PROCESSING       @D67BDAP 00181000
PBXTINSS EQU   X'40'              ON   MIH VALUE IS IN SECONDS @D67BDAP 00182000
*                                 OFF  MIH VALUE IS IN MINUTES @D67BDAP 00183000
PBXMIHTI EQU   X'3F'              6-BIT COUNT IN MIN. OR SEC.  @D67BDAP 00184000
         DS    XL1                RESERVED                     @D52VDAP 00185000
         SPACE ,                  DOUBLEBOUNDARY               @D52VDAP 00186000
PBXSIMAD DS    F                  DEVICE SIMULATION ROUTINE    @D52VDAP 00187000
PBXSIMID DS    F                  DEVICE SIMULATION PARAMETER  @D52VDAP 00188000
         SPACE ,                  DOUBLEBOUNDARY               @D52VDAP 00189000
PBXPUBCD DS    X                  VSE DEVICE TYPE CODE         @D14SSX2 00190000
PBXSNSID DS    0XL7               SENSE DEVICE TYPE INFORMATION@D14SSX2 00191000
         DS    X                  X'FF' IF ENTRY IS VALID      @D14SSX2 00192000
*                                 X'FE' IF ENTRY IS GENERATED  @D21IDAP 00193000
*                                 X'00' ENTRY IS INVALID       @D21IDAP 00194000
PBXCUTYP DS    XL2                CONTROL-UNIT TYPE NUMBER     @D14SSX2 00195000
.*                                                             @D52VDAP 00196000
PBXCUMOD DS    X                  CONROL-UNIT MODEL NUMBER     @D14SSX2 00197000
PBXDVTYP DS    XL2                DEVICE TYPE NUMBER           @D14SSX2 00198000
PBXDVMOD DS    X                  DEVICE TYPE MODEL NUMBER     @D14SSX2 00199000
         SPACE ,                  DOUBLEBOUNDARY               @D52VDAP 00200000
         DS    H                  RESERVED                     @D52VDAP 00201000
PBXOBR   DS    H                  OBR RECORD ID (OS DEV-TYPE)  @D21IDAP 00202000
PBXMDR   DS    X                  MDR RECORD ID                @D21IDAP 00203000
PBXCUID  DS    X                  CU MODEL IDENTIFIER          @D21IDAP 00204000
PBXOWNER DS    H                  CURRENT DEVICE OWNER                  00205000
         SPACE ,                  DOUBLEBOUNDARY               @D52VDAP 00206000
PBXUSCNT DS    F                  DEVICE USAGE INFORMATION              00207000
PBXUSOFF EQU   PBXUSCNT           OFFSET FOR PART.SHARABLE DEV.         00208000
PBXJACNT DS    F                  JA SIO COUNTER                        00209000
PBXJAOFF EQU   PBXJACNT           OFFSET FOR PART.SHARABLE DEV.         00210000
         SPACE ,                  DOUBLEBOUNDARY               @D52VDAP 00211000
PBXERBLK DS    A                  ADDRESS OF ERROR BLOCK                00212000
PBXDOMID DS    A                  DOM ID                       @D53CSAP 00213000
PBXIRB   DS    XL14               LAST IRB INFO                @DAOM055 00214190
PBXSSCHM DS    XL1                LPM AT SSCH TIME             @DAOM055 00214380
         DS    XL1                RESERVED                     @DAOM055 00214570
PBXCLNG  EQU   *-&LAB             LENGTH OF COMMON SECTION     @D21IDAP 00215000
PBXCEND  DS    0F                 END OF COMMON LENGTH         @D66EDAP 00216000
         SPACE ,                  DOUBLEBOUNDARY               @D66EDAP 00217000
         ORG   PBXCEND            OVERLAY FOR OSA DEVICES      @D62NDAP 00218000
PBXATTIB DS    A                  ATTENTION PROCESSOR TIB      @D62OSAP 00219000
PBXATECB DS    A                  ATTENTION PROCESSING ECB     @D62OSAP 00220000
PBXOLNG  EQU   *-&LAB             LENGTH OF OSA    SECTION     @D62OSAP 00221000
*                                                              @D66EDAP 00222000
*        QDIO-DEVICE EXTENTION                                 @D66EDAP 00223000
*                                                              @D66EDAP 00224000
         SPACE ,                  DOUBLEBOUNDARY               @D66EDAP 00225000
PBXCEAPP DS    A                  ADDRESS OF I/O APPENDAGE     @D66EDAP 00226000
         DS    A                  RESERVED                     @D66EDAP 00227000
         SPACE ,                  DOUBLEBOUNDARY               @D66EDAP 00228000
PBXQFLG1 DS    XL1                FLAG BYTE                    @D66EDAP 00229000
PBXQAINT EQU   X'80'              ADAPT. INTERRUPT FACIL. AVAIL@D67BDMZ 00230000
PBXQSCSC EQU   X'40'              SET CHSC COMMAND SUPPORTED   @D67BDMZ 00231000
PBXQSCSF EQU   X'20'              SET CHSC FAST COMMAND SUPP.  @D67BDMZ 00232000
PBXQFEAT DS    XL1                SUPPORTED FEATURES           @D66EDAP 00233000
PBXQPCI  EQU   X'80'              UNSOLICITED PCI INTERRUPT    @D66EDAP 00234000
PBXQSIGR EQU   X'40'              SIGA READ  REQUESTED         @D66EDAP 00235000
PBXQSIGW EQU   X'20'              SIGA WRITE REQUESTED         @D66EDAP 00236000
PBXQSIGS EQU   X'10'              SIGA SYSNCHRONIZE REQUESTED  @D66EDAP 00237000
PBXQEST  DS    X                  ESTABLISH QDIO COMMAND CODE  @D66EDAP 00238000
PBXQESTL DS    XL2                ESTABLISH QDIO LENGTH        @D66EDAP 00239000
PBXQACT  DS    X                  ACTIVATE  QDIO COMMAND CODE  @D66EDAP 00240000
PBXQACTL DS    XL2                ACTIVATE  QDIO LENGTH        @D66EDAP 00241000
PBXQIQNO DS    X                  NUMBER OF INPUT  QUEUES      @D66EDAP 00242000
PBXQOQNO DS    X                  NUMBER OF OUTPUT QUEUES      @D66EDAP 00243000
PBXQQFMT DS    X                  QUEUE FORMAT                 @D67BDMZ 00244000
PBXQCULA DS    XL1                CONTROL UNIT IMAGE ID (CULA) @D67BDMZ 00245000
         DS    XL4                RESERVED                     @D68ADAP 00246000
PBXOXLNG EQU   *-&LAB             LENGTH OF OSAX   SECTION     @D66EDAP 00247000
         ORG   PBXCEND            OVERLAY FOR NON-UR DEVICES   @D66EDAP 00248000
         SPACE ,                  DOUBLEBOUNDARY               @D52VDAP 00249000
PBXCCW   DS    A                  ADDR. OF CCW CHAIN                    00250000
PBXAOMMS DS    A                  AOM MESSAGE INFORMATION      @D25IDAP 00251000
         SPACE ,                  DOUBLEBOUNDARY               @D52VDAP 00252000
PBXVCTE  DS    A                  ADDR. OF VCT ENTRY           @D51EDAP 00253000
         AIF   (NOT &VSE280).N280040                           @SCSI    00254000
PBXASCSI DS    A                  FBA: A(SCSI CONTROL BLOCK)   @D27ADAP 00255000
         ORG   PBXASCSI           OVERLAY                               00256000
         DS    A                  CKD: RESERVED                @D27ADAP 00257000
PBXPATNR DS    A                  PARTNER DEVICE INFORMATION   @D28ADAP 00258000
.N280040 ANOP                                                  @SCSI    00259000
PBXDLNG  EQU   *-&LAB             LENGTH FOR DASD DEVICES      @D21IDAP 00260000
PBXFBAL  EQU   *-&LAB             LENGTH FOR FBA  DEVICES      @D27ADAP 00261000
         AIF   (NOT &VSE280).N280060                           @SCSI    00262000
         ORG   PBXASCSI           OVERLAY                      @D27ADAP 00263000
.N280060 ANOP                                                  @SCSI    00264000
PBXMODE  DS    A                  MODE INFORMATION FOR TAPES   @D21CDOW 00265000
         ORG   PBXMODE            OVERLAY                      @D51EDAP 00266000
.*                                                                      00267000
.*       TAPE  DEVICE EXTENTION                                         00268000
.*                                                                      00269000
PBXACMD  DS    CL1                CURRENTLY VALID MODE SET CMD @D21CDOW 00270000
PBXABYT  DS    CL1                CUR VALID MODE SET FCT BYTE  @D21CDOW 00271000
PBXSCMD  DS    CL1                SAVED PERMANENT MODE SET CMD @D21CDOW 00272000
PBXSBYT  DS    CL1                SAVED PERM MODE SET FCT BYTE @D21CDOW 00273000
         SPACE ,                  DOUBLEBOUNDARY               @D52VDAP 00274000
PBXTREC  DS    XL1'00'            SPECIAL RECORDING INFO       @D21LDRP 00275000
PBXT7TRK EQU   X'80'              MEDIA IS A 7-TRACK TAPE      @D21LDAP 00276000
PBXTCTG  EQU   X'40'              MEDIA IS CART.               @D21LDAP 00277000
PBXT896T EQU   X'20'              3592  896-TRACK RECORDING    @DAOME05 00278490
PBXT512T EQU   X'10'              3592  512-TRACK RECORDING    @D43592  00279000
PBXT384T EQU   X'08'              3590H 384-TRACK RECORDING    @DY45988 00280000
PBXT256T EQU   X'04'              3590E 256-TRACK RECORDING    @DY45988 00281000
PBXT2XF  EQU   X'02'              3490   36-TRACK RECORDING 2XF@D51GDAP 00282000
PBXT1SER EQU   X'01'              RESERVED                     @D21LDAP 00283000
PBXTDEN  DS    XL1'00'            RECORDING DENSITIES CAPABLTY @D21LDRP 00284000
PBXTDBUF EQU   X'80'              BUFFERED PROCESSING          @DTEST01 00285000
PBXTWORM EQU   X'40'              CART IS A WORM CARTRIDGE     @D68ADAP 00286000
PBXTWOWR EQU   X'20'              CART IS A WORM WITH DATA     @D68ADAP 00287000
PBXT3570 EQU   X'10'              RESERVED                     @D21LDAP 00288000
PBXT6250 EQU   X'08'              6250 BPI                     @D21LDAP 00289000
PBXT3200 EQU   X'04'              3200 BPI                     @D21LDAP 00290000
PBXT1600 EQU   X'02'              1600 BPI                     @D21LDAP 00291000
PBXT0800 EQU   X'01'              0800 BPI                     @D21LDAP 00292000
PBXTSPEC DS    XL2'00'            TAPE FEATURES                @53CADAP 00293000
PBXLBINF DS    XL4'00'            TAPE LIBRARY INFO (IF ANY)   @53CADAP 00294000
         AIF   (NOT &VSE280).N280080                                    00295000
PBXTFLG1 DS    XL1'00'            TAPE PROCESSING FLAG-1       @D68ADAP 00296000
PBXTNUNL EQU   X'80'              UNL=REW FOR THIS DEVICE      @D68ADAP 00297000
PBXTFLG2 DS    XL1'00'            TAPE PROCESSING FLAG-2       @D68ADAP 00298000
         DS    XL2'00'            RESERVED                     @D68ADAP 00299000
         DS    XL4'00'            RESERVED                     @D68ADAP 00300000
         DS    XL4'00'            RESERVED                     @D68ADAP 00301000
         AGO   .Y280020                                        @DAOM053 00302000
.N280080 ANOP                                                  @DAOM053 00303000
PBXTFLG1 EQU   PBXMIHFL+1         TAPE PROCESSING FLAGS        @DAOM053 00304000
PBXTNUNL EQU   X'80'              UNL=REW FOR THIS DEVICE      @DAOM053 00305000
.Y280020 ANOP                                                  @DAOM053 00306000
PBXMIFLG DS    XL1'00'            TAPE MIRROR PROCESSING FLAG  @MIRROR  00307000
PBXMFACT EQU   X'40'              MIRRORING IS ACTIVE          @MIRROR  00308000
PBXMFRUN EQU   X'08'              REQUEST WAS STARTED          @MIRROR  00309000
PBXMFMIR EQU   X'02'              MIRRORED DEVICE              @MIRROR  00310000
PBXMFSRC EQU   X'01'              MIRROR SOURCE DEVICE         @MIRROR  00311000
         DS    XL1'00'            RESERVED                     @MIRROR  00312000
PBXMICPY DS    XL2'00'            RESERVED                     @MIRROR  00313000
PBXMIPBX DS    XL4'00'            ADDRESS OF MIRROR PUBX       @MIRROR  00314000
PBXBUFER DS    XL4'00'            ADDRESS OF LABEL-BUFFER      @27ADAP  00315000
PBXTLNG  EQU   *-&LAB             LENGTH FOR TAPE DEVICES      @D21IDAP 00316000
         SPACE 1                                                        00317000
DVCUSCNT DSECT                    DEVICE USAGE INFORMATION              00318000
DVCPUCNT DS    H                  PHYSICAL USAGE COUNTER                00319000
DVCPWRTD EQU   DVCPUCNT           TID OF SPOOLED DEVICE OWNER           00320000
DVCLUFLG DS    0X                 DEVICE USAGE FLAG                     00321000
DVCPWRSP EQU   X'40'              DEVICE SPOOLED BY POWER               00322000
DVCLUCNT DS    H                  LOGICAL USAGE COUNTER                 00323000
         SPACE 3                                                        00324000
FPCCWADR DSECT                    FILE PROTECT CCW DSECT       @D51EDAP 00325000
FPCCWSK  CCW   0,0,0,0            COPIED USERS SEEK ADDRESS    @D51EDAP 00326000
FPCCWSFM CCW   0,0,0,0            SET FILE MASK CCW            @D51EDAP 00327000
FPCCWMSK EQU   FPCCWSFM+5         ADDRESS OF MASK BYTE FOR SFM @D51EDAP 00328000
FPCCWTIC CCW   0,0,0,0            TIC TO USERS CHANNEL PROGRAM @D51EDAP 00329000
FPCCWRSV CCW   0,0,0,0            RESERVED                     @D51EDAP 00330000
FPCCWLNG EQU   *-FPCCWSK          LENGTH OF CHANNEL PROGRAM    @D51EDAP 00331000
         SPACE 3                                               @D51EDAP 00332000
ECCCWADR DSECT                    ECKD CONVERSION INFORMATION  @D51EDAP 00333000
ECCCWDEF CCW   0,0,0,0            DEFINE EXTENT CCW FOR ECKD   @D51EDAP 00334000
ECCCWLOC CCW   0,0,0,0            LOCATE RECORD CCW            @D51EDAP 00335000
ECCCWTIC CCW   0,0,0,0            TIC TO USERS CHANNEL PROGRAM @D51EDAP 00336000
ECCCCFID DS    XL2'00'            CACHE FAST WRITE ID          @D51EDAP 00337000
ECCCWRSV DS    XL6'00'            RESERVED                     @D51EDAP 00338000
         SPACE 1                                               @D51EDAP 00339000
ECXDEXT  DS    0XL16'00'          DEFINE EXTENT PARAMETER      @D51EDAP 00340000
ECXDMSK  DS    XL1'00'            MASK BYTE                    @D51EDAP 00341000
NOTAWRIT EQU   X'40'              INHIBIT ALL WRITES           @DAOM102 00342000
PERAWRIT EQU   X'C0'              PERMIT  ALL WRITES           @DAOM102 00343000
NOLNGSEK EQU   X'10'              INHIBIT LONG SEEK            @DAOM102 00344000
ECXDGBL  DS    XL1'00'            GLOBAL ATTRITUTE BYTE        @D51EDAP 00345000
ECXDBLK  DS    XL2'00'            BLOCKSIZE                    @D51EDAP 00346000
         DS    XL3'00'            RESERVED                     @D51EDAP 00347000
ECXDGBLE DS    XL1'00'            GLOBAL ATTRITUTE EXTENDED    @D51EDAP 00348000
ECTIMVAL EQU   X'08'              TIME STAMP VALID INDICATOR   @D67ADAP 00349000
ECNRMLR0 EQU   X'04'              NORMAL R0 USED               @D67ADAP 00350000
ECPARMXX EQU   X'02'              PARAMETER LIST IS 32 BYTES   @D67ADAP 00351000
ECXDEXTB DS    XL4'00'            BEGIN OF EXTENT ADDRESS      @D51EDAP 00352000
ECXDEXTE DS    XL4'00'            END   OF EXTENT ADDRESS      @D51EDAP 00353000
*        END OF BASIC PARAMETER LENGTH                         @DAOM102 00354000
ECXXTIME DS    XL8'00'            EXTENDED SYSTEM TIME STAMP   @D67ADAP 00355000
ECXXFRMT DS    XL1'00'            EXTENDED FORMAT BYTE         @D67ADAP 00356000
ECXXPRTY DS    XL1'00'            EXTENDED PRIORITY BYTE       @D67ADAP 00357000
ECXXRSVD DS    XL6'00'            EXTENDED RESERVED BYTES      @D67ADAP 00358000
         SPACE 1                                               @D51EDAP 00359000
ECXDLOC  DS    0XL16'00'          LOCATE RECORD PARAMETER      @D51EDAP 00360000
ECXLOPB  DS    XL1'00'            OPERATION BYTE               @D51EDAP 00361000
ECXLAUX  DS    XL1'00'            AUXILARY BYTE                @D51EDAP 00362000
         DS    XL1'00'            RESERVED                     @D51EDAP 00363000
ECXLCNT  DS    XL1'00'            COUNT                        @D51EDAP 00364000
ECXLSEEK DS    XL4'00'            SEEK ADDRESS                 @D51EDAP 00365000
ECXLSRCH DS    XL5'00'            SEARCH ARGUMENT              @D51EDAP 00366000
ECXLSEC  DS    XL1'00'            SECTOR NUMBER                @D51EDAP 00367000