         MACRO                                                          00100000
&NAME    MAPPTASE                                                       00150000
         GBLB  &IJBSGEN     SUPERVISOR GENERATION                       00200000
         GBLA  &AGBKPSG     NUMBER OF BLOCKS PER SEGMENT       @D51GDRP 00250000
.*------------------------------------------------------------*         00300000
.*                                                            *         00350000
.*       IBM DISK OPERATING SYSTEM                            *         00400000
*        SUPERVISOR - MAPPTASE 5686-007-06                    *@D31UDRP 00450052
.**************************************************************         00500000
.*                                                            *         00550000
         AGO   .ZZZ                                           *         00600000
*        LICENSED MATERIALS - PROPERTY OF IBM                 *@D31UDRP 00650000
*        THIS MACRO IS "RESTRICTED MATERIALS OF IBM"          *@D31UDRP 00700000
*        5686-007 (C) COPYRIGHT IBM CORP. 1982, 1992          *@D31UDRP 00750052
*        SEE COPYRIGHT INSTRUCTIONS                           *@D31UDRP 00800000
.ZZZ     ANOP                                                 *         00850000
.*                                                            *         00900000
.**************************************************************         00950000
.* /* START OF SPECIFICATIONS *********************************         01000000
.*                                                                      01050000
.*01* MODULE NAME = MAPPTASE                                            01100000
.*                                                                      01150000
.*01* MODULE TYPE = MAP MACRO                                           01200000
.*                                                                      01250000
.*01* DESCRIPTIVE NAME = MAP OF PAGE TABLE ASSIGNMENT STRING ENTRY      01300000
.*                                                                      01350000
.*01* CHANGE ACTIVITY = AS FOLLOWS                                      01400000
.*            NEW MACRO -- AF REL 4.0                                   01450000
.*                                                                      01500000
.* A000000-999999                                              @D14NDVB 01550000
.**** END OF SPECIFICATIONS ***********************************         01600000
         AIF   (&IJBSGEN).NOWARN                               @D14ZDFG 01650000
*********************************************************************** 01700000
* WARNING: THE FOLLOWING MAPPING REFERS TO AN INTERNAL SUPERVISOR     * 01750000
*          CONTROL BLOCK. IT MAY CHANGE ANY TIME AND IS NOT COMMITTED * 01800000
*          AS AN INTERFACE OF ANY LEVEL.                              * 01850000
*********************************************************************** 01900000
.NOWARN  ANOP                                                  @D14ZDFG 01950000
*---  PAGE TABLE ASSIGNMENT ENTRY   --------------------------*         02000000
         SPACE 1                                                        02050000
         AIF   (T'&NAME EQ 'O').NONAME                                  02100000
&NAME    DSECT                                                          02150000
         AGO   .NAME                                                    02200000
.NONAME  ANOP                                                           02250000
PTASE    DSECT                    PTAS ENTRY                            02300000
.NAME    ANOP                                                           02350000
         DS    H                  RESERVED                     @D52VDRP 02400052
PTASFLG1 DS    X                  FLAG BYTE 1                  @D51GDRP 02600000
PTASUSED EQU   X'80'              ENTRY IN USE                 @D52VDRP 02625052
PTASFLG2 DS    X                  FLAG BYTE 2                  @D51GDRP 02650000
PTASRECN DS    F                  RECORD NUMBER ON PDS OF 1ST PAGE     *02700000
                                  .. OF THIS BLOCK             @D51GDRP 02750000
.*  FREE ENTRY   : 0                                                    02800000
PTASSHFT EQU   3                  SHIFT VALUE = LOG2(LPTASE)            03000000
SHARDSP  EQU   1                  SHARED SPACE                          03050000
LPTASE   EQU   *-PTASE            LENGTH OF PTAS ENTRY                  03100000
LPTASG   EQU   LPTASE*&AGBKPSG    LENGTH OF PTAS FOR 1 SEGMENT @D51GDRP 03150000
         SPACE 1                                                        03200000
PDASE    DSECT                    PDAS ENTRY                   @D51GDRP 03250000
         DS    X                  ALLOCATION INDICATION        @D51GDRP 03300000
.*  FREE ENTRY   : 0, ALLOCATED ENTRY:  X'FF'                           03350000
LPDASE   EQU   *-PDASE            LENGTH OF PDAS ENTRY         @D51GDRP 03400000
         MEND                                                           03450000
