* %GOTO MMAPROP;  /* PLS COMMENT COVERING ASSEMBLER CODE  ------>       00001000
         MACRO                                                          00002000
&NAME    MAPPROP   &DSECT=YES,&CLASS=                                   00003000
         LCLC  &LABNAM                                                  00004000
.*                                                                      00005000
*********************************************************************** 00006000
*                                                                       00007000
.*       IBM VSE / ADVANCED FUNCTIONS                          @D31UDGN 00008000
*        SUPERVISOR - MAPPROP - 5686-CF7-06                    @D62TAAP 00009000
.*                                                                      00010000
         AGO   .CPRIGHT                                                 00011000
.*                                                                      00012000
*        LICENSED MATERIALS - PROGRAM PROPERTY OF IBM          @D51MDGL 00013000
*        THIS MACRO IS "RESTRICTED MATERIALS OF IBM"           @D51MDGL 00014000
*        5686-CF7 (C) COPYRIGHT IBM CORP. 1979, 2005           @DY45299 00015490
*        SEE COPYRIGHT INSTRUCTIONS                            @D51MDGL 00016000
.*                                                                      00017000
.CPRIGHT ANOP                                                           00018000
*                                                                       00019000
*********************************************************************** 00020000
.*                                                                      00021000
.*                                                                      00022000
.*01* MODULE-TYPE = MACRO                                               00023000
.*                                                                      00024000
.*01* DESCRIPTIVE NAME = MAPPING OF DEVICE PROPERTIES                   00025000
.*                                                                      00026000
.*  STATUS           =  NEW MACRO - FIRST RELEASE AF 2.1.3              00027000
.*                                                                      00028000
.*  FUNCTION         =  SHOW DEVICE PROPERTIES FROM PUBX                00029000
.*  NOTES            =  NONE                                            00030000
.*  DEPENDENCIES     =  NONE                                            00031000
.*  RESTRICTIONS     =  NONE                                            00032000
.*  REGISTER CONVENT.=  NONE                                            00033000
.*  PATCH LABEL      =  NONE                                            00034000
.*  MACRO TYPE       =  BILINGUAL                                       00035000
.*  PROCESSOR        =  ASM/PLS                                         00036000
.*  MACRO SIZE       =  SEE OUTPUT                                      00037000
.*  ATTRIBUTES       =  MAPPING DSECT                                   00038000
.*  ENTRY POINT      =  NONE                                            00039000
.*  PURPOSE          =  SEE FUNCTION                                    00040000
.*  LINKAGE          =  SEE INPUT                                       00041000
.*  CALLER           =                                                  00042000
.*  INPUT            =                                                  00043000
.*                                                                      00044000
.*  OUTPUT           =  LAYOUT OF DEVICE PROPERTIES                     00045000
.*                                                                      00046000
.*  EXIT NORMAL      =  MACRO EXPANSION                                 00047000
.*                                                                      00048000
.*  EXIT ERROR       =  NONE                                            00049000
.*                                                                      00050000
.*  EXTERNAL REFEREN.=  NONE                                            00051000
.*  ROUTINES         =  NONE                                            00052000
.*  DATA AREAS       =  NONE                                            00053000
.*  CONTROL BLOCKS   =  NONE                                            00054000
.*  TABLES           =  NONE                                            00055000
.*  MACROS           =  NONE                                            00056000
.*  MODIFIED REGISTER=  NONE                                            00057000
.*  CHANGE ACTIVITIES=  NEW MACRO   FIRST RELEASE AF 2.1.3              00058000
.*                                                                      00059000
.*  A000000-999999                                             @D21CDWK 00060000
.*  PROVIDE MORE INFO  ABOUT CAPABILITIES OF TAPE DEVICES      @D21LDAP 00061000
.*  SPE DY37265                                                @D21LDAP 00062000
.*  PROVIDE BIT NO READ BACKWARD FOR CHALET TAPE SUPPORT       @D31KMGL 00063000
.*  SUPPORT OF 3490 TAPE                                       @D51TDAP 00064000
.*  SUPPORT OF TPA DEVICES                                     @D62TAAP 00065000
.*  SUPPORT OF TPA 3590E DEVICES                               @D67ADAP 00066000
.*  SUPPORT OF TPA 3590H DEVICES                               @DY45988 00067000
.*  SUPPORT OF TPA 3592  DEVICES                               @DY46120 00068000
.*                                                                      00069000
.** END OF SPECICATIONS *********************************************** 00070000
.*                                                                      00071000
&LABNAM  SETC  'DVPINDAR'                                               00072000
         AIF   (T'&NAME EQ 'O').DEFNAME                                 00073000
&LABNAM  SETC  '&NAME'                                                  00074000
.DEFNAME ANOP                                                           00075000
         AIF   ('&DSECT' EQ 'NO').NODSECT                               00076000
&LABNAM  DSECT                    DEVICE PROPERTY AREA                  00077000
         AGO   .LAYOUT                                                  00078000
.NODSECT ANOP                                                           00079000
&LABNAM  DS    0F                 DEVICE PROPERTY AREA                  00080000
.LAYOUT  ANOP                                                           00081000
DVPIND00 DS    X                  DEVICE PROPERTIES BYTE 0              00082000
DVPDASD  EQU   X'80'                0  DASD DEVICE                      00083000
DVPTAPE  EQU   X'40'                1  TAPE DEVICE                      00084000
DVPURD   EQU   X'20'                2  UNIT RECORD DEVICE               00085000
*        EQU   X'10'                3  RESERVED                         00086000
DVPSCSI  EQU   X'08'                4  PHYSICAL DEVICE IS SCSI @D28DR06 00087000
DVPMASS  EQU   X'04'                5  MASS STORAGE DEVICE     @D62TAAP 00088000
DVPVFBA  EQU   X'02'                6  VIRTUAL FBA DEVICE      @D62TAAP 00089000
DVPINVLD EQU   X'01'                7  DEVICE PROPERTY INVALID @D21LDAP 00090000
DVPIND10 DS    X                  DEVICE PROPERTIES BYTE 1              00091000
DVPRDFWD EQU   X'80'                0  TAPE: READ FORWARD SUPP @D62TAAP 00092000
*                                   0  DASD: RESERVED          @D62TAAP 00093000
*                                   0  UR:   RESERVED          @D62TAAP 00094000
DVPRDPRE EQU   X'40'                1  TAPE: READ PREVIOUS SUPP@D62TAAP 00095000
*                                   1  DASD: RESERVED          @D62TAAP 00096000
*                                   1  UR:   RESERVED          @D62TAAP 00097000
DVPBUFFD EQU   X'20'                2  BUFFERED DEVICE                  00098000
*                                   2  DASD: TRACK CACHING     @D62TAAP 00099000
*                                   2  TAPE: CACHED CONTROLLER @D51TDAP 00100000
*                                   2  UR:   RESERVED          @D51TDAP 00101000
DVPFEAT1 EQU   X'10'                3  DASD: DASD  FAST WRITE  @D51TDAP 00102000
*                                   3  TAPE: DATA COMPACTION   @D31JDAP 00103000
*                                   3  UR:   RESERVED          @D31JDAP 00104000
DVPFEAT2 EQU   X'08'                4  DASD: CACHE FAST WRITE  @D62TAAP 00105000
*                                   4  TAPE: AUTO BLOCKING     @D51TDAP 00106000
*                                   4  UR:   RESERVED          @D31JDAP 00107000
DVPFEAT3 EQU   X'04'                5  DASD: DUAL COPY CAPABLE @D62TAAP 00108000
*                                   5  TAPE: LIBRARY ONLINE    @D62TAAP 00109000
*                                   5  UR:   RESERVED          @D62TAAP 00110000
DVPNORDB EQU   X'02'                6  TAPE: NO READ BACKWARD  @D31KMGL 00111000
*                                   6  DASD: RESERVED          @D51TDAP 00112000
*                                   6  UR:   RESERVED          @D31JDAP 00113000
DVPDBCCW EQU   X'01'                7  SET MODE REQUIRES DATA  @D21LDAP 00114000
*                                   7  DASD: RESERVED          @DY45988 00115000
*                                   7  UR:   RESERVED          @DY45988 00116000
DVPIND20 DS    X                  DEVICE PROPERTIES BYTE 2              00117000
DVPIND30 DS    X                  DEVICE PROPERTIES BYTE 3              00118000
         AIF   (T'&CLASS EQ 'O').NTAP030                       @D21LDAP 00119000
         AIF   ('&CLASS' EQ 'TAPE').YTAP030                    @D21LDAP 00120000
         MNOTE 4,'CLASS=&CLASS IS INVALID - OPERAND IGNORED'   @D51TDAP 00121000
.YTAP030 ANOP                                                  @D21LDAP 00122000
         ORG   DVPIND20           REDEFINE DEVICE PROPERTY     @D21LDAP 00123000
DVPTFLG1 DS    X                  TAPE RECORDING INFORMATION   @D21LDAP 00124000
DVPT7TRK EQU   X'80'              MEDIA IS A 7-TRACK TAPE      @D21LDAP 00125000
DVPTTCTG EQU   X'40'              MEDIA IS A CARTRIDGE         @D21LDAP 00126000
DVPT896T EQU   X'20'              3592 WITH 896-TRACKS         @DAOME05 00127490
DVPT512T EQU   X'10'              3592 WITH 512-TRACKS         @DY46120 00128000
DVPT384T EQU   X'08'              3590 WITH 384-TRACKS         @D67ADAP 00129000
DVPT256T EQU   X'04'              3590 WITH 256-TRACKS         @D67ADAP 00130000
DVPT2XF  EQU   X'02'              3490 2-XF FORMAT     36 TRACK@D51TDAP 00131000
*        EQU   X'01'              RESERVED                     @D67ADAP 00132000
DVPTFLG2 DS    X                  TAPE SUPPORTED DENSITIES     @D21LDAP 00133000
*        EQU   X'80'              RESERVED                     @D21LDAP 00134000
DVPTWORM EQU   X'40'              CART IS A WORM               @DY46120 00135000
DVPTWOWR EQU   X'20'              CART IS A WORM WITH DATA     @DY46120 00136000
DVPT3570 EQU   X'10'              RESERVED                     @DY46120 00137000
DVPT6250 EQU   X'08'              6250 BPI REEL                @D21LDAP 00138790
DVPT3200 EQU   X'04'              3200 BPI REEL                @D21LDAP 00139580
DVPT1600 EQU   X'02'              1600 BPI REEL                @D21LDAP 00140370
DVPT0800 EQU   X'01'              0800 BPI REEL                @D21LDAP 00141160
         ORG   ,                  RE-ESTABLISH LOCATION COUNT  @D21LDAP 00142000
.NTAP030 ANOP                                                  @D21LDAP 00143000
DVPINDLN EQU   *-&LABNAM          DEVICE PROPERTY AREA LENGTH           00144000
         MEND                                                           00145000
*     THE PLS MAP HAS TO BE %INCLUDED                                   00146000
*     END OF PLS COMMENT                                             */ 00147000
*%MMAPROP : ;                         /*                             */ 00148000
*     DCL 1 DVPINDAR BASED,           /* DEVICE PROPERTY AREA        */ 00149000
*           2 DVPIND00 BIT(8),        /* DEVICE PROPERTIES BYTE 0    */ 00150000
*             3 DVPDASD  BIT(1),      /*  BIT 0 DASD DEVICE          */ 00151000
*             3 DVPTAPE  BIT(1),      /*  BIT 1 TAPE DEVICE          */ 00152000
*             3 DVPURD   BIT(1),      /*  BIT 2 UNIT RECORD DEVICE   */ 00153000
*             3 *        BIT(1),      /*  BIT 3 RESERVED             */ 00154000
*             3 DVPSCSI  BIT(1),      /*  BIT 4 PHYSIC. DEV. IS SCSI */ 00155000
*             3 DVPMASS  BIT(1),      /*  BIT 5 MASS STORAGE DEVICE  */ 00156000
*             3 DVPVFBA  BIT(1),      /*  BIT 6 VIRTUAL FBA DEVICE   */ 00157000
*             3 DVPINVLD BIT(1),      /*  BIT 7 PROPERTIES  INVALID  */ 00158000
*           2 DVPIND10 BIT(8),        /* DEVICE PROPERTIES BYTE 1    */ 00159000
*             3 DVPRDFWD BIT(1),      /*  BIT 0 TAPE: READ FORWARD      00160000
*                                               DASD: RESERVED          00161000
*                                               UR:   RESERVED       */ 00162000
*             3 DVPRDPRE BIT(1),      /*  BIT 1 TAPE: READ PREVIOUS     00163000
*                                               DASD: RESERVED          00164000
*                                               UR:   RESERVED       */ 00165000
*             3 DVPBUFFD BIT(1),      /*  BIT 2 TAPE: BUFFERED DEVICE   00166000
*                                               DASD: BUFFERED DEVICE   00167000
*                                               UR:   BUFFERED DEVICE*/ 00168000
*             3 DVPFEAT1 BIT(1),      /*  BIT 3 TAPE: DATA COMPACTION   00169000
*                                               DASD: DASD FAST WRITE   00170000
*                                               UR:   RESERVED       */ 00171000
*             3 DVPFEAT2 BIT(1),      /*  BIT 4 TAPE: AUTO BLOCKING     00172000
*                                               DASD: CACHE FAST WRITE  00173000
*                                               UR:   RESERVED       */ 00174000
*             3 DVPFEAT3 BIT(1),      /*  BIT 5 TAPE: LIBRARY ONLINE    00175000
*                                               DASD: DUAL COPY CAPABLE 00176000
*                                               UR:   RESERVED       */ 00177000
*             3 DVPNORDB BIT(1),      /*  BIT 6 TAPE: NO READ BACKW.    00178000
*                                               DASD: RESERVED          00179000
*                                               UR:   RESERVED       */ 00180000
*             3 DVPDBCCW BIT(1),      /*  BIT 7 TAPE: SET MODE W DATA   00181000
*                                               DASD: RESERVED          00182000
*                                               UR:   RESERVED       */ 00183000
*           2 DVPIND20 BIT(8),        /* DEVICE PROPERTIES BYTE 2    */ 00184000
*           2 DVPIND30 BIT(8);        /* DEVICE PROPERTIES BYTE 3    */ 00185000
*                                     /*                             */ 00186000
*      DCL  1 DVPTFLG1 BIT(8) DEF(DVPIND20), /*                      */ 00187000
*             3 DVPT7TRK BIT(1),      /*  MEDIA IS 7-TRACK TAPE      */ 00188000
*             3 DVPTTCTG BIT(1),      /*  MEDIA IS CARTRIDGE         */ 00189000
*             3 DVPT896T BIT(1),      /*  3592 896-TRACK     @DAOME05*/ 00190490
*             3 DVPT512T BIT(1),      /*  3592 512-TRACK     @DY46120*/ 00191000
*             3 DVPT384T BIT(1),      /*  3590 384-TRACK     @DY45988*/ 00192000
*             3 DVPT256T BIT(1),      /*  3590 256-TRACK     @DY45988*/ 00193000
*             3 DVPT2XF  BIT(1),      /*  3490 XF2 FORMAT    @D51TDAP*/ 00194000
*             3 DVPT1SER BIT(1);      /*  SERPENTINE RECORD. @D21LDAP*/ 00195000
*                                     /*                             */ 00196000
*      DCL  1 DVPTFLG2 BIT(8) DEF(DVPIND30), /*                      */ 00197000
*             3 *        BIT(1),      /*  BIT 1 RESERVED             */ 00198000
*             3 DVPTWORM BIT(1),      /*  CART IS A WORM     @DY46120*/ 00199000
*             3 DVPTWOWR BIT(1),      /*  CART IS WORM+DATA  @DY46120*/ 00200000
*             3 DVPT3570 BIT(1),      /*  RESERVED           @DY46120*/ 00201000
*             3 DVPT6250 BIT(1),      /*  6250 BPI                   */ 00202000
*             3 DVPT3200 BIT(1),      /*  3200 BPI                   */ 00203000
*             3 DVPT1600 BIT(1),      /*  1600 BPI                   */ 00204000
*             3 DVPT0800 BIT(1);      /*  0800 BPI                   */ 00205000
*                                     /*                             */ 00206000
*                                     /*                             */ 00207000
*                                     /*                             */ 00208000
