*/*        MAPRQADR- 5686-066                                @D61NDMZ*/ 00010008
*%GOTO MMAPRQAD;                                           /*@D61NDMZ*/ 00020008
*/* THIS IS THE BEGINNING OF A LONG PL/S COMMENT TO ISOLATE             00030008
*   THE ENTIRE ASSEMBLER VERSION OF THIS MACRO SO THAT IT               00040008
*   CAN CONTAIN UNBALANCED QUOTE MARKS.                                 00050008
         MACRO                                                          00060008
&NAME    MAPRQADR                                                       00070008
.**************************************************************         00071009
.*       IBM DISK OPERATING SYSTEM                            *         00080009
*        SUPERVISOR - MAPRQADR - 5686-066-06                  *         00090009
         AGO   .ZZZ                                           *         00100009
*        LICENSED MATERIALS - PROPERTY OF IBM                 *         00110009
*        "RESTRCITED MATERIALS OF IBM"                        *         00120009
*        5686-066                                             *         00130009
*        (C) COPYRIGHT IBM CORP. 1995                         *         00131009
.**************************************************************         00141009
.ZZZ     ANOP                                                 *         00150009
         AIF   (T'&NAME EQ 'O').NONAME                                  00160008
&NAME    DSECT                                                          00170008
         AGO   .NAME                                                    00180008
.NONAME  ANOP                                                           00190008
RQADR    DSECT                                                          00200008
.NAME    ANOP                                                           00210008
*------- RESOURCE DESCRIPTOR ---------------------------------*         00220008
RQPSS    DS    0F           SELECTION STRING LABEL             @D149DIS 00230008
RQCHAIN  DS    F            POINTER TO FIRST TIB IN CHAIN      @D14BDFR 00240008
*              X'80'        NO WAITERS ENQUEUED                @D52VDMZ 00250008
TIBAVAIL EQU   X'00'        WAITERS ENQUEUED                   @D14BDFR 00260008
RQID     DS    X            RESOURCE IDENTIFIER                @D36IDFG 00270008
RQFLAG   DS    X            RESOURCE QUEUE IDENTIFIER          @D36IDFR 00280008
SYSTQ    EQU   X'80'          SYSTEM QUEUE, PRIORITY POSTING,  @D149DIS 00290008
*                               CHANGEABLE GATE                @D149DIS 00300008
PARTQ    EQU   X'40'          PARTITION QUEUE, PRIORITY POSTING@D149DIS 00310008
*                               CHANGEABLE GATE                @D149DIS 00320008
WAITCHN  EQU   X'20'          TIB CHAIN, SELECTIVE POSTING,    @D149DIS 00330008
*                               PERMANENTLY CLOSED GATE        @D149DIS 00340008
IOCHN    EQU   X'10'          I/O CHAIN, SELECTIVE OR DIRECT   @D149DIS 00350008
*                               POSTING, PERM.CLOSED GATE      @D149DIS 00360008
PGATE    EQU   X'08'          NO QUEUE, DIRECT POSTING,        @D149DIS 00370008
*                               PERMANENTLY CLOSED GATE        @D149DIS 00380008
PREADY   EQU   X'04'          READY TO RUN STATE,              @D149DIS 00390008
*                               PERMANENTLY OPENED GATE        @D149DIS 00400008
NORDY    EQU   X'01'          DO NOT POST IN CASE OF CANCEL    @D149DIS 00410008
RSCDESC  DS    H            RESOURCE IND AND OWNER             @D66ODOW 00420009
FREEBIT  EQU   X'80'        BIT 0 ON : RESOURCE IS FREE        @D66ODOW 00430009
NFREEMSK EQU   X'7F'        BIT 0 OFF: RESOURCE IS NOT FREE    @D66ODOW 00440009
NFREEBYT EQU   X'00'        TO DEFINE NOTFREE RESOURCE         @D66ODOW 00441009
***                                    BIT 0 - 15 MAY CONTAIN OWNER     00442008
*FREEVAL  = X'8000' DEFINED IN SGLOWC                                   00443008
*NFREEVAL = X'0000' DEFINED IN SGLOWC                                   00444008
         MEND                                                  @D61NDMZ 00445008
* END OF BIG PL/S COMMENT.                        ---------> @D61NDMZ*/ 00446008
*/* THIS IS NOT A PL/S MACRO.  TO CALL IT CODE %INCLUDE      @D61NDMZ*/ 00447008
*/* SYSLIB(MAPCOMR) AND THEN A SEMI-COLON.                   @D61NDMZ*/ 00448008
*%MMAPRQAD:;                                               /*@D61NDMZ*/ 00449008
*/*                                                          @D61NDMZ*/ 00450008
*DCL  1 RQADR BASED,               /*                        @D61NDMZ*/ 00460008
*      2 RQCHAIN  PTR(31),    /* PTR TO FIRST TIB CHAIN      @D61NDMZ*/ 00470008
*       3 RQPSS   BIT(32),    /* SELECTION STRING LABEL      @D61NDMZ*/ 00480008
*      2 RQID     CHAR(1),    /* RESOURCE IDENTIFIER         @D61NDMZ*/ 00490008
*      2 RQFLAG   BIT(8),     /* RESOURCE QUEUE IDENTIF.     @D61NDMZ*/ 00500008
*       3 SYSTQ   BIT(1),     /* SYSTEM QUEUE, PRIORITY POSTING,        00510008
*                               CHANGABLE GATE              @D61NDMZ*/  00520008
*       3 PARTQ   BIT(1),     /* PARTITION QUEUE, PRIORITY POSTING,     00530008
*                                CHANGABLE GATE              @D61NDMZ*/ 00540008
*       3 WAITCHN BIT(1),     /* PARTITION QUEUE, PRIORITY POSTING,     00550008
*                                CHANGABLE GATE              @D61NDMZ*/ 00560008
*       3 IOCHN   BIT(1),     /* I/O CHAIN, SELECTIVE OR DIRECT         00570008
*                                POSTING, PERM. CLOSED GATE  @D61NDMZ*/ 00580008
*       3 PGATE   BIT(1),     /* NO QUEUE, DIRECT POSTING               00590008
*                                PERMANENT CLOSED GATE       @D61NDMZ*/ 00600008
*       3 PREADY  BIT(1),     /* READY TO RUN STATE,                    00610008
*                                PERMANENTLY OPENED GATE     @D61NDMZ*/ 00620008
*       3 *       BIT(1),     /* RESERVED                    @D61NDMZ*/ 00630008
*       3 NORDY   BIT(1),     /* DO NOT POST WHEN CANCEL     @D61NDMZ*/ 00640008
*      2 RSCDESC  BIT(16),    /* RESOURCE IND + OWNER        @D66ODOW*/ 00650009
*       3 RSUSEBIT BIT(1),    /* ON : RESOURCE IS FREE       @D66ODOW*/ 00660009
*       3 RSOWNER BIT(15);    /* RESOURCE OWNER              @D66ODOW*/ 00670009
*DCL FREEBIT  BIT(1) CONSTANT ('1'B); /*IDENTIFY FREE RSCRCE @D66ODOW*/ 00680009
*/*DCL NFREEBIT BIT(1) CONSTANT ('0'B); ...RESOURCE NOT FREE @D66ODOW*/ 00690009
