*%GOTO  MMAPSTE; /*PLS COMMENT TO AVOID UNMATCHED QUOTE PROBLEMS        00050000
         MACRO                                                          00100000
&NAME    MAPSTE                                                         00150000
         GBLB  &BGXA           MODE=XA GENERATION              @D51GDTP 00200000
         GBLB  &IJBSGEN        SUPERVISOR GENERATION           @D51GDTP 00250000
.*                                                             @D148DVB 00300000
.*       IBM DISK OPERATING SYSTEM                             @D148DVB 00350000
*        SUPERVISOR - MAPSTE   5686-032-06                     @D31UDRP 00400052
.************************************************************* @D148DVB 00450000
.*                                                           * @D148DVB 00500000
         AGO   .ZZZ                                          * @D31UDRP 00550000
*        LICENSED MATERIALS - PROPERTY OF IBM                * @D31UDRP 00600000
*        THIS MACRO IS "RESTRICTED MATERIALS OF IBM"         * @D31UDRP 00650000
*        5686-032 (C) COPYRIGHT IBM CORP. 1983, 1992         * @D31UDRP 00700052
*        SEE COPYRIGHT INSTRUCTIONS                          * @D31UDRP 00750000
.ZZZ     ANOP                                                * @D31UDRP 00800000
.*                                                           * @D148DVB 00850000
.************************************************************* @D148DVB 00900000
.* ** START OF SPECIFICATIONS ***************************************** 00950000
.*                                                                      01000000
.*01* MODULE NAME = MAPSTE                                              01050000
.*                                                                      01100000
.*01* MODULE TYPE = MAP MACRO                                           01150000
.*                                                                      01200000
.*01* DESCRIPTIVE NAME = MAP OF SEGMENT TABLE ENTRY                     01250000
.*                                                                      01300000
.*01* CHANGE ACTIVITY = AS FOLLOWS                                      01350000
.*            NEW MACRO -- AF REL 4.0                                   01400000
.* 31-BIT REAL AND XA I/O SUPPORT                              @D51GDTP 01450000
.*                                                                      01500000
.* A000000-999999                                              @D14NDFG 01550000
.**** END OF SPECIFICATIONS **************************************** ** 01600000
*---------------------------------------------------------------------* 01650000
*        SEGMENT TABLE ENTRY DSECT                                    * 01700000
*---------------------------------------------------------------------* 01750000
         SPACE 1                                                        01800000
         AIF   (T'&NAME EQ 'O').NONAME                                  01850000
&NAME    DSECT                    MAP SEGMENT TABLE ENTRY      @D51GDTP 01900000
         AGO   .NAME                                                    01950000
.NONAME  ANOP                                                           02000000
STE      DSECT                    MAP SEGMENT TABLE ENTRY      @D51GDTP 02050000
.NAME    ANOP                                                           02100000
STEPTO   DS    0F                 PAGE TABLE ORIGIN IN DAT FORMAT       02150000
         AIF   (&BGXA).STEPTO1    IF XA MODE, GEN XA STE       @D51GDTP 02200000
STEPTL   DS    CL1                (LENGTH OF PAGE TABLE)*4 - 16         02250000
*                                 ALWAYS 'F0' SINCE EACH PAGE TABLE     02300000
*                                 IS 64 BYTES LONG                      02350000
         DS    CL3                ADDRESS OF PAGE TABLE                 02400000
         ORG   STEPTO             LAY-OUT FOR INVALID SEGMENT           02450000
         DS    CL3                NOT USED                              02500000
STEFLG   DS    X                  FLAG BYTE                             02550000
STECOM   EQU   X'02'              FLAG FOR COMMON SEGMENT               02600000
STEINV   EQU   X'01'              FLAG FOR INVALID SEGMENT              02650000
         AIF   (&IJBSGEN).STECOM                               @D52VDRP 02700052
STEXPTL  EQU   STEFLG             LENGTH IS PART OF FLAG BYTE  @D51GDTP 02750000
STEXINV  EQU   X'20'              INVALID SEGMENT IN XA        @D51GDTP 02800000
STEXCOM  EQU   X'10'              COMMON SEGMENT IN XA         @D51GDTP 02850000
STELENXA EQU   X'0F'              LENGTH BITS FOR XA           @D51GDTP 02900000
         AGO   .STECOM            SKIP XA DEFINITIONS          @D52VDRP 02950052
.STEPTO1 ANOP                                                  @D51GDTP 03050000
         DS    CL3                ADDRESS OF PAGE TABLE        @D51GDTP 03100000
STEPTL   DS    X                  ALWAYS X'XF' SINCE EACH ENTRY@D51GDTP*03150000
                                   COVERS 1MB SEGMENT          @D51GDTP 03200000
STEFLG   EQU   STEPTL             FLAG BYTE IS SAME AS LENGTH  @D51GDTP 03250000
STECOM   EQU   X'10'              COMMON SEGMENT BIT           @D51GDTP 03300000
STEINV   EQU   X'20'              INVALID SEGMENT BIT          @D51GDTP 03350000
STELENXA EQU   X'0F'              LENGTH BITS FOR XA           @D51GDTP 03400000
.STECOM  ANOP                                                  @D52VDRP 03425052
LSTE     EQU   *-STE              LENGTH OF STE                @D51GDTP 03450000
STELNSH  EQU   2                  SHIFT VALUE FOR LENGTH OF STE@D52VDRP 03483352
         MEND                                                           03516652
* END OF PLS COMMENT */ %MMAPSTE : ;                                    03550000
* DECLARE                                                               03600000
* 1   STE  BASED,         /* MAP OF SEGMENT TABLE ENTRY              */ 03650000
*  2  STEPTO   PTR(31),   /* PAGE TABLE ORIGIN IN DAT FORMAT         */ 03700000
*   3  STEPTL   FIXED(8),  /* (LENGTH OF PAGE TABLE)*4 - 16             03750000
*                             ALWAYS = 'F0' SINCE EACH PAGE TABLE       03800000
*                             IS 64 BYTES LONG                       */ 03850000
*   3  *         BIT(21), /* ADDRESS OF PAGE TABLE / 8 ,CAN BE USED     03900000
*                            AS VIRTUAL ADDRESS SINCE ALL PAGE TABLES   03950000
*                            ARE IN V = R STORAGE                    */ 04000000
*   3  *         BIT(3),  /* ARCHITECTED FLAGS, SAME AS IN STEFLAG   */ 04050000
* 1   *  BASED(STE) ,     /* LAY OUT FOR INVALID SEGMENT             */ 04100000
*  2  *        CHAR(3),   /* NOT USED                                */ 04150000
*  2  STEFLG   CHAR(1),   /* FLAG BYTE                               */ 04200000
*   3  *        BIT(6),   /* NOT USED                                */ 04250000
*   3  STECOM   BIT(1),   /* FLAG FOR COMMEN SEGMENT                 */ 04300000
*   3  STEINV   BIT(1),   /* FLAG FOR INVALID SEGMENT                */ 04350000
* 1   *  BASED(STE) ,     /* LAYOUT FOR XA                   @D51GDTP*/ 04400000
*  2  STEXPTO   BIT(26),  /* ADDRESS OF PAGE TABLE           @D51GDTP*/ 04450000
* 1   *  BASED(STE) ,     /* LAYOUT OF STATUS BYTE           @D51GDTP*/ 04500000
*  2  *         CHAR(3),  /* FIRST 24 BITS OF ADDRESS        @D51GDTP*/ 04550000
*  2  STEXFLG   CHAR(1),  /* FLAG BYTE IN XA                 @D51GDTP*/ 04600000
*   3  *        BIT(2),   /* LAST 2 BITS OF ADDRESS          @D51GDTP*/ 04650000
*   3  STEXINV  BIT(1),   /* INVALID SEGMENT BIT IN XA       @D51GDTP*/ 04700000
*   3  STEXCOM  BIT(1),   /* COMMON SEGMENT BIT IN XA        @D51GDTP*/ 04750000
*   3  STEXPTL  BIT(4);   /* LENGTH OF PAGE TABLE            @D51GDTP*/ 04800000
