*%GOTO  MMAPSCB; /*PLS COMMENT TO AVOID UNMATCHED QUOTE PROBLEMS        00050000
         MACRO                                                          00100000
&NAME    MAPSCB                                                         00150000
         GBLB  &IJBSGEN                   SUPERVISOR GENERATION         00200000
         GBLC  &SCBLAB                                                  00250000
.*       IBM DISK OPERATING SYSTEM                            *         00300000
*        SUPERVISOR - MAPSCB - 5686-066-06                    *         00350001
         AGO   .ZZZ                                           *         00400000
*        LICENSED MATERIALS - PROPERTY OF IBM                 *         00450000
*        THIS MACRO IS "RESTRICTED MATERIALS OF IBM"          *@D31UDMZ 00500000
*        5686-066 (C) COPYRIGHT IBM CORP. 1982, 1996          *@D64ADMZ 00550001
*        SEE COPYRIGHT INSTRUCTIONS                           *@D31UDMZ 00600000
.ZZZ     ANOP                                                 *         00650000
.**** START OF SPECIFICATIONS ***************************************** 00700000
.*                                                                      00750000
.*01* MODULE-TYPE = MACRO                                               00800000
.*                                                                      00850000
.*01* DESCRIPTIVE NAME = MAPPING OF SPACE CONTROL BLOCK                 00900000
.*                                                                      00950000
.*  STATUS           =  NEW MACRO - FIRST RELEASE AF 2.1                01000000
.*                                                                      01050000
.*  FUNCTION         =  SHOW LAYOUT OF SPACE CONTROL BLOCK              01100000
.*  NOTES            =  NONE                                            01150000
.*  DEPENDENCIES     =  NONE                                            01200000
.*  RESTRICTIONS     =  NONE                                            01250000
.*  REGISTER CONVENT.=  NONE                                            01300000
.*  PATCH LABEL      =  NONE                                            01350000
.*  MACRO TYPE       =  BILINGUAL                                       01400000
.*  PROCESSOR        =  ASM/PLS                                         01450000
.*  MACRO SIZE       =  SEE OUTPUT                                      01500000
.*  ATTRIBUTES       =  MAPPING DSECT                                   01550000
.*  ENTRY POINT      =  SCBADR                                          01600000
.*  PURPOSE          =  SEE FUNCTION                                    01650000
.*  LINKAGE          =  SEE INPUT                                       01700000
.*  CALLER           =                                                  01750000
.*  INPUT            =  MAPSCB                                          01800000
.*  OUTPUT           =  DSECT OF SCB                                    01850000
.*                                                                      01900000
.*  EXIT NORMAL      =  MACRO EXPANSION                                 01950000
.*                                                                      02000000
.*  EXIT ERROR       =  NONE                                            02050000
.*                                                                      02100000
.*  EXTERNAL REFEREN.=  NONE                                            02150000
.*  ROUTINES         =  NONE                                            02200000
.*  DATA AREAS       =  NONE                                            02250000
.*  CONTROL BLOCKS   =  NONE                                            02300000
.*  TABLES           =  NONE                                            02350000
.*  MACROS           =  NONE                                            02400000
.*  CHANGE ACTIVITIES=  NEW MACRO   FIRST RELEASE AF 2.1       @D14NDFG 02450000
.*    MORE THAN 16MB REAL (NEW SYSTEM LAYOUT) AF 5.1.0         @D51GDMZ 02500000
.*    MORE PARTITIONS SUPPORT                 AF 5.1.0         @D51IDMZ 02550000
.*    ACCESS REGISTERS                        AF 5.1.0         @D51KDTP 02600000
.*    31 BIT SUPPORT                          AF 5.2.0         @D52VDMZ 02625001
.*    FM SUPPORT                              AF 6.4.0         @D64ADMZ 02637501
.*  MODIFIED REGISTER=  NONE                                            02650000
.*                                                                      02700000
.** END OF SPECICATIONS *********************************************** 02750000
.*                                                                      02800000
         AIF   (&IJBSGEN).NOWARN                               @D14ZDFG 02850000
*********************************************************************** 02900000
* WARNING: THE FOLLOWING MAPPING REFERS TO AN INTERNAL SUPERVISOR     * 02950000
*          CONTROL BLOCK. IT MAY CHANGE ANY TIME AND IS NOT COMMITTED * 03000000
*          AS AN INTERFACE OF ANY LEVEL.                              * 03050000
*********************************************************************** 03100000
.NOWARN  ANOP                                                  @D14ZDFG 03150000
* * * * * * * * * * * * * * * * * * * * * * * * * * * * * * * * * * * * 03200000
*        SPACE CONTROL BLOCK DSECT                                    * 03250000
* * * * * * * * * * * * * * * * * * * * * * * * * * * * * * * * * * * * 03300000
         SPACE 1                                                        03350000
         AIF   (T'&NAME EQ 'O').NONAME                                  03400000
&SCBLAB  SETC  '&NAME'                                         @D51IDMZ 03450000
         AGO   .SCBCNT                                         @D51IDMZ 03500000
.NONAME  ANOP                                                           03550000
&SCBLAB  SETC  'SCBADR'                                                 03600000
.SCBCNT  ANOP                                                           03650000
&SCBLAB  DSECT                                                          03700000
SCBEYEC  DS    F                  EYE-CATCHER                  @D52VDMZ 03725001
SCBID    DS    H                  SYMBOLIC SPACE IDENTIFIER             03750000
*                                 PREDEFINED VALUES :                   03800000
*                                 'R '  FOR REAL SPACE                  03850000
*                                 '0 '  FOR PRIMARY VIRTUAL SPACE       03876901
*                                 'N '  N=1,.,B. ADD. VIRT.SP.          03891201
*                                 'S '  FOR SHARED VIRTUAL AR.          03905501
*                                 'XY'  SYSLOG ID FOR DYN.SPCE          03919801
*                                 'DS'  FOR DATA SPACE                  03934101
*                                 'AB'  AB=F0F0 - F9F9 FOR PMR SPACES.  03948501
*                                       WRAP AROUND IF MORE THAN 99 SP. 03953001
SCBSPN   DS    H                  SPACE INDEX                  @D52VDMZ 03957601
SCBFWPT  DS    F                  PTR TO SCB OF NEXT PMRSP/ASP @D52VDMZ 03966501
SCBBWPT  DS    F                  PTR TO SCB OF PREV, PMRSP/ASP@D52VDMZ 03975401
SCBFLG   DS    X                  TYPE OF SCB. UNIQUE          @D52VDMZ 03993401
SCBDSP   EQU   X'80'              SCB OF A DATA SPACE          @D52VDMZ 04011401
SCBASP   EQU   X'40'              SCB OF AN ADDRESS SPACE      @D52VDMZ 04038301
SCBPMRSP EQU   X'20'              SCB OF A PMR ADDRESS SPACE   @D52VDMZ 04065201
SCBSHA   EQU   X'10'              SCB OF SHARED AREA           @D52VDMZ 04078601
SCBFLG1  DS    X                  FLAG BYTE                    @D52VDMZ 04092101
SCBDEFSP EQU   X'80'              SCB CREATED BY USING DEFAULTS@D52VDMZ 04119001
SCBCRIPL EQU   X'40'              SCB CREATED DURING IPL (SP.0)@D52VDMZ 04132401
         DS    H                  RESERVED                     @D51GDMZ 04145901
SCBSIZE  DS    F                  SIZE OF ALLOCATED PART. SPACE IN K    04172801
*                                 END OF SCBR OF VM MODE                04200000
         DS    F                  RESERVED                     @D51GDMZ 04300000
SCBVSTO  DS    F                  VIRT. ADDRESS OF SEGMENT TABLE (370)  04350000
SCBRSTO  DS    0F                 SEGMENT TABLE ORIGIN FOR DAT (370)    04400000
SCBXRSTO DS    0F                 SEGMENT TABLE ORIGIN FOR XA  @D51GDTP 04600000
         DS    3X                 REAL ADDRESS IN XA           @D51GDTP 04650000
SCBXSTL  DS    X                  (LENGTH OF SEG. TABLE)/16 - 1@D51GDTP 04700000
SCBPSTR  DS    CL32               PIK LIST OF ALLOCATED PARTITIONS      04750000
         ORG   SCBPSTR            SCBPSTR IS REUSED FOR DYN.PA.@D51IDMZ 04800000
SCBDSPIK DS    H                  PIK OF DYNAMIC PARTITION     @D51IDMZ 04850000
         DS    H                  RESERVED                     @D51IDMZ 04900000
SCBSPGVB DS    F                  BEGIN OF DYN. SP. GETVIS AREA@D51IDMZ 04950000
SCBSPGVE DS    F                  END OF DYN. SP. GETVIS AREA  @D51IDMZ 04987501
SCBPMSPC DS    F                  PTR TO PMRSP. GETVIS CTRL.INF@D52VDMZ 05025001
         DS    4F                 NOT USED FOR DYNAMIC PART.   @D52VDMZ 05062501
* END OF SCBPSTR OVERLAY                                                05081201
SCBASTER DS    A                  REAL ADDR OF ASTE (DS ONLY)  @D52VDMZ 05100001
SCBASTE  DS    A                  ADDRESS OF ASTE FOR DATA SP. @D52VDMZ 05150001
SCBUSCNT DS    H                  NO OF USERS SWITCH.TO THIS SP@D51IDMZ 05200000
         DS    H                  RESERVED                     @D51IDMZ 05250000
SCBAPMRA DS    F                  ADDR OF PMRAS                @D52VDMZ 05255501
SCBAPT   DS    F                  VIRT. ADDR OF SPACE'S PT     @D52VDMZ 05266501
SCBAPTAS DS    F                  VIRT. ADDR OF SPACE'S PTAS   @D52VDMZ 05272001
SCBPASZ  DS    F                  SIZE(IN K) WITH PMR TAB ALLOC@D52VDMZ 05273801
SCBCUSZ  DS    F                  SIZE(IN K) WITH PMR TAB RESERVED     *05275601
                                  (REAL STORAGE)               @D52VDMZ 05277401
SCBEXSZ  DS    F                  SIZE(IN K) FOR WHICH PMR TABLES ARE  *05279201
                                  TO BE RESERVED (REAL)        @D52VDMZ 05281001
SCBAPOSL DS    F                  ADDR OF POSL OF ADDRESS SPACE@D52VDMZ 05283001
SCBARPSL DS    F                  ADDR OF RPSL OF ADDRESS SPACE@D52VDMZ 05288501
SCBPFIX  DS    H                  PAGES PFIX'D IN 24 BIT AREA FOR      *05289401
                                  PMR TABLES                   @D52VDMZ 05290301
SCBPFIX3 DS    H                  PAGES PFIX'D IN 31 BIT AREA FOR      *05291201
                                  PMR TABLES                   @D52VDMZ 05292101
SCBASCB  DS    F                  POINTER TO ASCB              @D61ADMZ 05292801
SCBPICNT DS    F                  NO OF PAGE-IN FOR SPACE      @D52VDMZ 05293601
SCBSPL   DS    F                  ANCHOR FOR SPACE RELATED SUBPOOL     *05295701
                                  LIST                         @D61ADMZ 05297101
         DS    F                  RESERVED FOR FUTURE USE      @D61NDMZ 05298501
SCBLNG   EQU   *-&SCBLAB                                       @D51IDMZ 05300000
         MAPDSCB                                               @D51IDMZ 05325001
         MEND                                                           05350000
* END OF PLS COMMENT */ %MMAPSCB : ;                                    05400000
* DECLARE                                                               05450000
* 1   SCBADR BASED BDY(WORD),   /* MAP OF SCB AND DSCB       @D52VDMZ*/ 05487501
* 2   SCB,                      /* MAP OF SPACE CONTROL BLOCK           05506201
*                                                            @D52VDMZ*/ 05524901
*  3  SCBEYEC  CHAR(4),   /* EYE-CATCHER                     @D52VDMZ*/ 05543701
*  3  SCBID    CHAR(2),   /* SYMBOLIC SPACE IDENTIFIER       @D52VDMZ   05571801
*                            PREDEFINED VALUES :                        05600000
*                             'R '  FOR REAL SPACE                      05650000
*                             '0 '  FOR PRIM. VIRTUAL SPACE  (370/ESA   05677701
*                             'N '  N=1-B FOR ADD. VIRT. SP. (370/ESA   05705401
*                             'XY'  SYSLOG ID FOR DYN. SPACE (370/ESA   05733101
*                             'S '  FOR SHARED VIRTUAL AREA  (370/ESA   05760801
*                             'DS'  FOR DATA SPACE           (370/ESA   05774701
*                             'AB'  AB=F0F0-F9F9 FOR PMR SPACES. USED   05788601
*                                   WRAP AROUND IF MORE THAN 99 SP.  */ 05802501
*  3  SCBSPN   FIXED(15), /* SPACE INDEX                     @D52VDMZ*/ 05816601
*  3  SCBFWPT  PTR(31),   /* PTR TO SCB OF NEXT PMRSP/ASP    @D52VDMZ*/ 05822101
*  3  SCBBWPT  PTR(31),   /* PTR TO SCB OF PREV. PMRSP/ASP   @D52VDMZ*/ 05827601
*  3  SCBFLG   BIT(8),    /* FLAG INDICATING TYPE OF SCB     @D52VDMZ*/ 05833201
*   4 SCBDSP   BIT(1),    /* SCB OF A DATA SPACE             @D52VDMZ*/ 05849801
*   4 SCBASP   BIT(1),    /* SCB OF AN ADDRESS SPACE         @D52VDMZ*/ 05866401
*   4 SCBPMRSP BIT(1),    /* SCB OF A PM ADDRESS SPACE       @D52VDMZ*/ 05883001
*   4 SCBSHA   BIT(1),    /* SCB OF SHARED AREA              @D52VDMZ*/ 05894001
*   4 *        BIT(4),    /* RESERVED                        @D52VDMZ*/ 05905001
*  3  SCBFLG1  BIT(8),    /* FLAG BYTE                       @D52VDMZ*/ 05916201
*   4 SCBDEFSP BIT(1),    /* SCB CREATED BY USING DEFAULTS   @D52VDMZ*/ 05932801
*   4 SCBCRIPL BIT(1),    /* SCB CREATED DURING IPL (SP. 0)  @D52VDMZ*/ 05943801
*   4 *        BIT(6),    /* RESERVED                        @D52VDMZ*/ 05954801
*  3  *        CHAR(2),   /* RESERVED                        @D52VDMZ*/ 05966001
*  3  SCBSIZE  FIXED(31), /* SIZE OF ALLOC.PART.SPACE IN K   @D52VDMZ*/ 05982601
*                         /* END OF SCBR OF VM MODE                  */ 06000000
*  3  *        PTR(31),   /* RESERVED                        @D51GDMZ*/ 06100001
*  3  SCBVSTO  PTR(31),   /* VIRTUAL ADDRESS OF SEGMENT TABLE        */ 06150001
*  3  SCBRSTO  PTR(31),   /* SEGMENT TABLE ORIGIN FOR DAT            */ 06200001
*  3  SCBPSTR  CHAR(32),  /* PIK LIST OF ALLOCATED PARTITIONS        */ 06350001
*  3  SCBASTER PTR(31),   /* REAL ADDR OF ASTE (DS ONLY)     @D52VDMZ*/ 06400001
*  3  SCBASTE  PTR(31),   /* ADDRESS OF ASTE FOR DATA SPACE  @D52VDMZ*/ 06450001
*  3  SCBUSCNT FIXED(15), /* NO OF USERS SWITCH.TO THIS SPACE@D51IDMZ*/ 06500001
*  3   *       FIXED(15), /* RESERVED                        @D51IDMZ*/ 06510001
*  3  SCBAPMRA PTR(31),   /* ADDRESS OF SCB FOR PMRAS        @D52VDMZ*/ 06520001
*  3  SCBAPT   PTR(31),   /* VIRT. ADDR OF SPACE'S PT        @D52VDMZ*/ 06540001
*  3  SCBAPTAS PTR(31),   /* VIRT. ADDR OF SPACE'S PTAS      @D52VDMZ*/ 06550001
*  3  SCBPASZ  FIXED(31), /* SIZE IN K WITH PMR TABLES ALLOC.@D52VDMZ*/ 06554001
*  3  SCBCUSZ  FIXED(31), /* SIZE IN K WITH PMR TAB. RESERVED@D52VDMZ*/ 06558001
*  3  SCBEXSZ  FIXED(31), /* SIZE IN K FOR WHICH PMR TABLES ARE TO BE   06562001
*                            RESERVED (REAL)                 @D52VDMZ*/ 06566001
*  3  SCBAPOSL FIXED(31), /* ADDR OF POSL OF ADDRESS SPACE   @D52VDMZ*/ 06570001
*  3  SCBARPSL FIXED(31), /* ADDR OF RPSL OF ADDRESS SPACE   @D52VDMZ*/ 06580001
*  3  SCBPFIX  FIXED(15), /* PAGES PFIX'D IN 24 BIT AREA FOR            06582901
*                            PMR TABLES                      @D52VDMZ*/ 06585801
*  3  SCBPFIX3 FIXED(15), /* PAGES PFIX'D IN 31 BIT AREA FOR            06588701
*                            PMR TABLES                      @D52VDMZ*/ 06591601
*  3  SCBASCB  PTR(31),   /* POINTER TO ASCB                 @D61ADMZ*/ 06593801
*  3  SCBPICNT PTR(31),   /* NO OF PAGE-IN FOR SPACE         @D52VDMZ*/ 06596001
*  3  SCBSPL   PTR(31),   /* ANCHOR FOR SPACE REL.SUBPOOL LST@D61ADMZ*/ 06596801
*  3  *        PTR(31),   /* RESERVED FOR FUTURE USE         @D61NDMZ*/ 06597601
*%INCLUDE SYSLIB(MAPDSCB);/* ADD DECLARES FOR DATA SPACES    @D52VDMZ*/ 06598601
* DECLARE                                                               06600000
* 1   * DEFINED(SCBRSTO), /* REDEFINE SCBRSTO FOR MODE=XA    @D51GDMZ*/ 06650000
*  2   SCBXRSTO PTR(31),  /* SEGMENT TABLE ORIGIN IN MODE=XA @D51GDMZ*/ 06700000
*   3  *        CHAR(3),  /* REAL ADDR OF SEGMENT TABLE      @D51GDMZ*/ 06750000
*   3  SCBXSTL  FIXED(8); /* (LENGTH OF SEG TABLE)/64-1      @D51GDMZ*/ 06800001
* DECLARE                                                               06850000
* 1   * DEFINED(SCBPSTR), /* REDEFINE SCBPSTR FOR DYN. PART  @D51IDMZ*/ 06900000
*  2   SCBDSPIK FIXED(15),/* PIK OF DYNAMIC PARTITION        @D51IDMZ*/ 06950000
*  2   *        FIXED(15),/* RESERVED                        @D51IDMZ*/ 07000000
*  2   SCBSPGVB PTR(31),  /* BEGIN OF DY. SPACE GETVIS AREA  @D51IDMZ*/ 07050000
*  2   SCBSPGVE PTR(31),  /* END OF DYNAMIC SPACE GETVIS AREA@D51IDMZ*/ 07100000
*  2   SCBPMSPC PTR(31),  /* PTR TO PMRSP. GETVIS CTRL. INFO.@D52VDMZ*/ 07150001
*  2   *        CHAR(16); /* NOT USED FOR DYNAMIC PARTITIONS @D52VDMZ*/ 07200001
