*%GOTO  MMAPTCB; /*PLS COMMENT TO AVOID UNMATCHED QUOTE PROBLEMS        00010051
         MACRO                                                          00020051
&NAME    MAPTCB &DSECT=YES                                     @D51IDMZ 00030051
         GBLB  &IJBSGEN           SUPERVISOR GENERATION                 00040051
         GBLC  &LABEL                                          @D52VDMZ 00050051
.*       IBM DISK OPERATING SYSTEM                            *         00060051
*        SUPERVISOR - MAPTCB - 5686-066                       *@D61NDMZ 00070051
         AGO   .ZZZ                                           *         00080051
*        LICENSED MATERIALS - PROPERTY OF IBM                  @D31BDMZ 00090051
*        THIS MACRO IS "RESTRICTED MATERIALS OF IBM"          *@D31BDMZ 00100051
*        5686-066 (C) COPYRIGHT IBM CORP. 1981, 2000           @D61NDMZ 00110051
*        SEE COPYRIGHT INSTRUCTIONS                            @D31BDMZ 00120051
.ZZZ     ANOP                                                 *         00130051
.**** START OF SPECIFICATIONS ***************************************** 00140051
.*                                                                      00150051
.*01* MODULE-TYPE = MACRO                                               00160051
.*                                                                      00170051
.*01* DESCRIPTIVE NAME = MAPPING OF TASK CONTROL BLOCK                  00180051
.*                                                                      00190051
.*  STATUS           =  NEW MACRO - FIRST RELEASE AF 2.1                00200051
.*                   =              AF 5.3.0                            00210051
.*                                                                      00220051
.*  FUNCTION         =  SHOW LAYOUT OF TASK CONTROL BLOCK AND           00230051
.*                      GENERATE INLINE CODE                            00240051
.*  NOTES            =  NONE                                            00250051
.*  DEPENDENCIES     =  NONE                                            00260051
.*  RESTRICTIONS     =  NONE                                            00270051
.*  REGISTER CONVENT.=  NONE                                            00280051
.*  PATCH LABEL      =  NONE                                            00290051
.*  MACRO TYPE       =  ASSEMBLER                                       00300051
.*  PROCESSOR        =  ASM                                             00310051
.*  MACRO SIZE       =  SEE OUTPUT                                      00320051
.*  ATTRIBUTES       =  MAPPING DSECT                                   00330051
.*  ENTRY POINT      =  TCBADR                                          00340051
.*  PURPOSE          =  SEE FUNCTION                                    00350051
.*  LINKAGE          =  SEE INPUT                                       00360051
.*  CALLER           =                                                  00370051
.*  INPUT            =  MAPTCB                                          00380051
.*  OUTPUT           =  DSECT OF TCB                                    00390051
.*                                                                      00400051
.*  EXIT NORMAL      =  MACRO EXPANSION                                 00410051
.*                                                                      00420051
.*  EXIT ERROR       =  NONE                                            00430051
.*                                                                      00440051
.*  EXTERNAL REFEREN.=  NONE                                            00450051
.*  ROUTINES         =  NONE                                            00460051
.*  DATA AREAS       =  NONE                                            00470051
.*  CONTROL BLOCKS   =  NONE                                            00480051
.*  TABLES           =  NONE                                            00490051
.*  MACROS           =  NONE                                            00500051
.*  CHANGE ACTIVITIES=  NEW MACRO   FIRST RELEASE AF 2.1       @DA34091 00510051
.*  CHANGE 01        =  POINTER FOR VTAM DELAY CANCEL PROCESS  @DA36477 00520051
.*  CHANGE 02        =  EQU FOR LENGTH OF TYPE 2 SYSTEM TCB'S  @DA36760 00530051
.*  CHANGE 03        =  MOVE XPCC EXIT PTR TO TIB AF 4.1.0     @D31BDMZ 00540051
.*  CHANGE 04        =  IAF HOOKS AF 4.1.1                     @D31ZDMZ 00550051
.*  CHANGE 05        =  SCLP SUPPORT                           @D31EMMZ 00560051
.*  CHANGE 06        =  5.1 EXTENSIONS FOR CICS                @D51HDOW 00570051
.*  CHANGE 07        =  5.1 MORE PARTITION SUPPORT             @D51IDMZ 00580051
.*  CHANGE 08        =  5.2 31 BIT SUPPORT                     @D52VDMZ 00590051
.*  CHANGE 09        =  5.3 PC, LINKAGE STACK.. (EP) SUPPORT   @D61PDMZ 00600051
.*  CHANGE 10        =  6.X FAMILY API                         @D64ADMZ 00610051
.*  MODIFIED REGISTER=  NONE                                            00620051
.*                                                                      00630051
.** END OF SPECICATIONS *********************************************** 00640051
.*                                                                      00650051
         AIF   (&IJBSGEN).NOWARN                               @D14ZDFG 00660051
*********************************************************************** 00670051
* WARNING: THE FOLLOWING MAPPING REFERS TO AN INTERNAL SUPERVISOR     * 00680051
*          CONTROL BLOCK. IT MAY CHANGE ANY TIME AND IS NOT COMMITTED * 00690051
*          AS AN INTERFACE OF ANY LEVEL.                              * 00700051
*********************************************************************** 00710051
.NOWARN  ANOP                                                  @D14ZDFG 00720051
         AIF   (T'&DSECT EQ 'O').PRDS                          @D51IDMZ 00730051
         AIF   ('&DSECT' EQ 'YES').PRDS                        @D51IDMZ 00740051
         AIF   ('&DSECT' EQ 'NO').INLINE                       @D51IDMZ 00750051
.PRDS    ANOP                                                  @D51IDMZ 00760051
         AIF   (T'&NAME EQ 'O').NONAME                                  00770051
&LABEL   SETC  '&NAME'                                         @D52VDMZ 00780051
         AGO   .YNAME                                          @D52VDMZ 00790051
.NONAME  ANOP                                                           00800051
&LABEL   SETC  'TCBADR'                                        @D52VDMZ 00810051
.YNAME   ANOP                                                  @D52VDMZ 00820051
&LABEL   DSECT                                                          00830051
TCBLNGTH DS    H            LENGTH OF TCB                      @D14BDFR 00840051
TCBAUTHF DS    X            FLAG BYTE                          @D14BDFG 00850051
TCBFLAG3 EQU   TCBAUTHF                                        @D14CDFG 00860051
TCBVEND  EQU   X'80'          0  VENDOR PROGRAM ACTIVE         @D52VDMZ 00870051
VSPT     EQU   X'40'          1  PERFORMANCE TOOL ACTIVE       @D51IDMZ 00880051
DMF      EQU   X'20'          2  DMF FROM SUBSID               @D62XDMZ 00890051
* CICSMT REMOVED (CICS IS ALWAYS MAINTASK)                     @D52VDIS 00900051
DLIMT    EQU   X'10'          3  DLI 'MAIN TASK' FROM SUBSID   @D14BDFG 00910051
ISPFMT   EQU   X'08'          4  ISPF 'MAIN TASK' FROM SUBSID  @D14BDFG 00920051
FTPTSK   EQU   X'04'          5  FTP TASK ALLOWED TO USE CPCOM @D14BDJB 00930051
SOEMI    EQU   X'02'          6  SOEMI TASK                    @DA34091 00940051
ICCFMT   EQU   X'01'          7  ICCF 'MAIN TASK' FROM SUBSID  @D52VDIS 00950051
TCBRID   DS    X            RID SAVED ON INTERR. IN SV SERVICE @D36IDFR 00960051
FATHERID DS    H            TID OF ATTACHING TASK, 0 IF NONE   @D36IDFR 00970051
TCBFLAGS DS    X            FLAG BYTE                          @D36IDFR 00980051
SYSRESW  EQU   X'80'          0  WRITE ON SYSRES ALLOWED       @D36IDFR 00990051
*                             1  RESERVED FOR FUTURE USE       @D61NDMZ 01000051
*                             2  RESERVED FOR FUTURE USE       @D61NDMZ 01010051
ACLOSE   EQU   X'10'          3  VSAM AUTOM.CLOSE IN PROCESS   @D36IDFR 01020051
VSMOPEN  EQU   X'08'          4  VSAM ACB'S OPEN IN PARTITION  @D36IDFG 01030051
*                             5  RESERVED (FORMER SYNCH FLAG)  @D14BDFG 01040051
ICCFSVC  EQU   X'02'          6  ICCF SVC SCREENING FLAG       @D36IDFG 01050051
SVCEXIT  EQU   ICCFSVC                                         @D14BDFG 01060051
OWNTIMER EQU   X'01'          7  TASK TIMER ACTIV IN TASK      @D14BDFR 01070051
TCBFLAG2 DS    X            FLAG BYTE                          @D36IDFR 01080051
CNCLRTRN EQU   X'80'          0  TERMINATOR TO BE RECALLED     @D36IDFR 01090051
TCBWSTT  EQU   X'40'          1  MVS TASK MUST WAIT FOR SUBTASK         01100051
*                                TERMINATION                   @D64ADMZ 01110051
*        EQU   X'20'          2  RESERVED                      @D14BDFR 01120051
OPENSVA  EQU   X'10'          3  OPEN ACTIVE IN SVA            @D36BDFG 01130051
SELFTERM EQU   X'08'          4  TASK TERMINATING BY ITSELF    @D36IDFG 01140051
*        EQU   X'04'          5  RESERVED                      @D14BDFR 01150051
CNCLALL  EQU   X'02'          6  CANCEL ALL REQUEST            @D36IDFR 01160051
NOPAGING EQU   X'01'          7  NO PAGE FAULTS ALLOWED        @D36IDFR 01170051
TCBTIB   DS    F             TIB POINTER                       @D36IDFR 01180051
TCBSAVE  DS    F             TASK SAVEAREA ADDRESS             @D36IDFR 01190051
INTINFO  DS    F             INTERRUPT INFORMATION             @D36IDFR 01200051
SVCIC    EQU   INTINFO+3     SVC-CODE                          @D36IDFR 01210051
AERREXIT DS    F             ADDRESS OF SYST.TASK CANCEL EXIT  @D14BDFG 01220051
TCBERBLK DS    F             ADDRESS OF SYST.TASK ERROR BLOCK  @D14BDFG 01230051
TCBSAV2  DS    F             ADDRESS OF SECOND SAVE AREA       @D36IDFR 01240051
TCBARSLN EQU   64            LENGTH OF ACCESS REGISTER SAVE AR.@D51IDMZ 01250051
TCBARSAV DS    A             ADDRESS OF ACCESS REG SAVE AREA   @D51KDTP 01260051
TCBAR2SV DS    A             ADDR OF SECOND AR SAVE AREA       @D52VDMZ 01270051
TCBGVR12 DS    F             WORK AREA (USED BY GETVIS)        @D51IDMZ 01280051
.* TCBEXFLG MUST BE ON A FULLWORD BOUNDARY                     @D52VDMZ 01290051
TCBEXFLG DS    X             EXECUTION FLAG                    @D52VDMZ 01300051
TCBEXAM  EQU   X'80'         ON: AMODE 31, OFF: AMODE 24       @D52VDMZ 01310051
TCBEXARM EQU   X'40'         ON: AR MODE ALLOW. OFF: NOT ALL.  @D52VDMZ 01320051
TCBEXRM  EQU   X'20'         ON: RMODE(LOC) 31, OFF: RMODE 24  @D52VDMZ 01330051
TCBEXHPS EQU   X'10'         ON: HASN=PASN=SASN                @D61ADMZ 01340051
TCBEXXMD EQU   X'08'         ON: SVC ALLOWED IN X-MDOE         @D64ADMZ 01350051
TCBEXNAT EQU   X'04'         ON: MVS SVC ALLOWED IN NATIVE ENV.@D64ADMZ 01360051
.* TCBEXFLG MUST BE ON A FULLWORD BOUNDARY                     @D52VDMZ 01370051
TCBIEXFL DS    X             INTERNAL EXECUTION FLAG           @D52VDMZ 01380051
TCBIEXAM EQU   TCBEXAM       INTERNAL AMODE                    @D52VDMZ 01390051
TCBIEXRM EQU   TCBEXRM       INTERNAL RMODE                    @D52VDMZ 01400051
TCBGRFLG DS    X             GETVIS REQUEST FLAG BYTE          @D52VDMZ 01410051
TCBGSVA  EQU   X'80'         GETVIS SVA REQUEST                @D52VDMZ 01420051
TCBGSVAP EQU   X'40'         GETVIS SVA PFIX REQUEST           @D52VDMZ 01430051
TCBGSPCE EQU   X'20'         GETVIS SPACE REQUEST              @D52VDMZ 01440051
TCBGPMSP EQU   X'10'         GETVIS PMR SPACE REQUEST          @D52VDMZ 01450051
TCBSETLR EQU   X'08'         DO SETLOCK RELEASE, PGETVIS ONLY  @D67FDMZ 01451051
TCBFLAG5 DS    X             MORE FLAGS                        @D52VDMZ 01452051
TCBQDSP  EQU   X'80'         SYS.GETV. SP. ALLOC. BY SYSDEF SVC@D52VDMZ 01453051
TCBRSIND EQU   X'40'         ON  - RECOVERY LINKAGE STACK USED @D61PDOWX01454051
                             OFF - NORMAL LINKAGE STACK USED            01455051
TCBLSMAX EQU   X'20'         LINKAGE STACK HAS MAX SIZE        @D61PDOW 01456051
TCBRSMAX EQU   X'10'         RECOVERY LINK STACK HAS MAX SIZE  @D61PDOW 01457051
*TCBLSPEC EQU   X'01'  **** FREE FOR REUSE ***                 @D67CDOW 01458052
TCBUCNTL DS    F             USER CONTROL BLOCK                @D52VDMZ 01459051
TCBTDSE  DS    A             PTR TO TASK DATA SPACE CNTL. BLOCK@D52VDMZ 01460051
         DS    A             NOT USED                          @D61PDOW 01470051
TCBDMPIP DS    F             ADDR OF DUMP MSG INFORMATION      @D52VDMZ 01480051
         DS    F             RESERVED FOR FUTURE USE           @D52VDMZ 01490051
         DS    F             RESERVED FOR FUTURE USE           @D52VDOW 01500051
         DS    0D            DOUBLE WORD BOUNDARY FOR SAVEAREA @D14BDFR 01510051
TCBSSAVE EQU   *-8           VIRT.BEGIN OF SECOND SAVE AREA    @D14BDFG 01511051
TCBSSAV  DS    CL72          SECOND SAVE AREA                  @D51IDMZ 01512051
***************************************************************         01513051
*        FOLLOWING PORTION OF TCB IS USED AS WORK SPACE       *         01514051
*        BY SEVERAL SUPERVISOR FUNCTIONS                      *         01515051
***************************************************************         01516051
TCBWAREA DS    0F            TCB WORK AREA                     @D36IDFG 01517051
*------- FETCH WORK AREA -------------------------------------*@D36IDVB 01518051
DFWK1STL DS    F                                               @D64ADVB 01519051
DFWK2NDL DS    F                                               @D64ADVB 01520051
DFWKRTUR DS    F                                               @D64ADVB 01530051
DFCBSAV  DS    16F           SAVE AREA                         @D64ADVB 01540051
*                            SAVE AREA (R6,R8-R14) FOR SA ENV  @D61NDMZ 01550051
OFSXRE   EQU   0                                               @D64ADVB 01560051
OFSXRF   EQU   OFSXRE+4                                        @D64ADVB 01570051
OFSXR0   EQU   OFSXRF+4                                        @D64ADVB 01580051
OFSXR1   EQU   OFSXR0+4                                        @D64ADVB 01590051
OFS0     EQU   0                                               @D64ADVB 01600051
OFS1     EQU   OFS0+4                                          @D64ADVB 01610051
OFS2     EQU   OFS1+4                                          @D64ADVB 01620051
OFS3     EQU   OFS2+4                                          @D64ADVB 01630051
OFS4     EQU   OFS3+4                                          @D64ADVB 01640051
OFS5     EQU   OFS4+4                                          @D64ADVB 01650051
OFS6     EQU   OFS5+4                                          @D64ADVB 01660051
OFS7     EQU   OFS6+4                                          @D64ADVB 01670051
OFS8     EQU   OFS7+4                                          @D64ADVB 01680051
OFS9     EQU   OFS8+4                                          @D36IDVB 01690051
OFS10    EQU   OFS9+4                                          @D36IDVB 01700051
OFS11    EQU   OFS10+4                                         @D36IDVB 01710051
OFS12    EQU   OFS11+4                                         @D36IDVB 01720051
*-------------------------------------------------------------*@D64ADVB 01730051
DFWKOV   DS    0F            OVERWRITE INFORMATION                      01740051
DFWKLPNT DS    F             LOAD POINT                                 01750051
DFWKEPNT DS    F             ENTRY POINT                                01760051
DFWKUSEN DS    F             POINTER TO USER'S DIR ENTRY                01770051
DFWKAATE DS    A             ADDRESS OF CURRENT ATE            @D64ADVB 01780051
DFWKALLE DS    A             ADDRESS OF CURRENT LLE            @D64ADVB 01790051
*-------------------------------------------------------------*@D64ADVB 01800051
DFWKSWRQ DS    XL1           STATE OF REQUEST                  @D64ADVB 01810051
SYSAMASK EQU   X'80'         SYSTEM TASK        (DFCBSW1)      @D64ADVB 01820051
AUTHREQ  EQU   X'40'         AUTHORIZED REQUEST                @D64ADVB 01830051
SVC02REQ EQU   X'20'         SVC02 - REQUEST                   @D64ADVB 01840051
PLLEFND  EQU   X'10'         PLLE FOUND, CONTAMINATION         @D64ADVB 01850051
DCBSRCH  EQU   X'08'         DCB SPECIFIED - SEARCH TASK CHAIN @D64ADVB 01860051
DENOTXT  EQU   X'04'         DE-INFO ONLY  - NO PROGRAM FETCH  @D64ADVB 01870051
GIVRETRC EQU   X'02'         PROVIDE RETURN CODE               @D64ADVB 01880051
MORESRCH EQU   X'01'         CONTINUE SEARCH                   @D64ADVB 01890051
*-------------------------------------------------------------*@D64ADVB 01900051
DFWKRQFM DS    XL1           LOAD REQUEST FORMAT               @D64ADVB 01910051
*                            (DFWKPHPT - OFFSET 0 )            @D64ADVB 01920051
* VSE LOAD REQUESTS HAVE HIGHEST BIT OFF                       @D64ADVB 01930051
SLOADREQ EQU   X'03'         VSE / SLOAD                       @D64ADVB 01940051
CDLOADRQ EQU   X'02'         VSE / CDLOAD                      @D64ADVB 01950051
ICCFREQ  EQU   X'01'         VSE / ICCF LOAD                   @D64ADVB 01960051
LOADREQ  EQU   X'00'         VSE / NORMAL LOAD                 @D64ADVB 01970051
* MVS LOAD REQUESTS HAVE HIGHEST BIT ON                        @D64ADVB 01980051
MVSXXXX  EQU   X'80'         MVS REQUEST                       @D64ADVB 01990051
MVSLOAD  EQU   X'81'         MVS LOAD VIA ADDR                 @D64ADVB 02000051
MVSCDLD  EQU   X'82'         MVS CDLOAD                        @D64ADVB 02010051
MVSDELT  EQU   X'83'         MVS DELETE                        @D64ADVB 02020051
MVSCSALD EQU   X'84'         MVS CSA CDLOAD                    @D64ADVB 02030051
MVSBLDL  EQU   X'85'         MVS BLDL                          @D64ADVB 02040051
MVSDALL  EQU   X'86'         MVS DELETE-ALL                    @D64ADVB 02050051
*-------------------------------------------------------------*@D64ADVB 02060051
DFCBSW1  DS    XL1           DIRECTORY READ                             02070051
FIRSTDIR EQU   X'80'         FIRST DIRECTORY RECORD                     02080051
INVUSEN  EQU   X'40'         INVALID LOCAL LIST                         02090051
VENDRSEC EQU   X'20'         VENDOR REQ. SECURITY VIOLATION    @D61NDMZ 02100051
USERDUPD EQU   X'10'         UPDATE USER DIR ENTRY    (DFCBSW2)@D64ADVB 02110051
ACTDIR   EQU   X'08'         DIRECTORY ENTRY ACTIVE   (DFCBSW2)@D64ADVB 02120051
IDERR    EQU   X'04'         ID MISMATCH DIR READ     (DFCBSW2)@D64ADVB 02130051
DIRGTVIS EQU   X'02'         GETVIS COPY FOR DE       (DFCBSW5)@D64ADVB 02140051
*-------------------------------------------------------------*@D64ADVB 02150051
DFCBSW2  DS    XL1           STATUS PGM FETCH                  @D14CDVB 02160051
PFIXPND  EQU   X'80'         PFIX DONE FOR THIS PHASE (DFCBSW1)@D64ADVB 02170051
FIXTXT   EQU   X'40'         AREA FOR PHASE READ IN FIXED      @D64ADVB 02180051
LASTTBL  EQU   X'20'         LAST TEXT BLOCK IS READ IN        @D64ADVB 02190051
REALMASK EQU   X'10'         REQ. FOR REAL PARTITION (DFCBSW1) @D64ADVB 02200051
PARTLOAD EQU   X'08'         REQ, FOR PARTITION      (DFCBSW1) @D64ADVB 02210051
FLNKVIO  EQU   X'02'         LINK PROCESSING VIA VIO           @D64ADVB 02220051
*-------------------------------------------------------------*@D64ADVB 02230051
DFCBSW3  DS    XL1           STATUS PGRAM FETCH       (DFCBSW4)@D14CDVB 02240051
TXTIOPND EQU   X'80'               TXT I/0 STILL PENDING       @D64ADVB 02250051
RLDIODLD EQU   X'40'               RLD I/O DELAYED             @D64ADVB 02260051
LASTBLKM EQU   X'20'         LAST BLOCK MOVED                  @D64ADVB 02270051
NOCONTLD EQU   X'08'               REST OF PHASE IS NOT READ   @D64ADVB 02280051
*                                    WITH NEXT FREAD REQUEST   @D64ADVB 02290051
*-------------------------------------------------------------*@D64ADVB 02300051
DFCBSW4  DS    XL1           RESERVED                          @D64ADVB 02310051
*-------------------------------------------------------------*@D64ADVB 02320051
DFWKSVC  DS    X             SAVE SVC CODE                     @D61NDMZ 02330051
         DS    XL3           RESERVED                          @D64ADVB 02340051
*-------------------------------------------------------------*@D64ADVB 02350051
DFWKREAC DS    H             REASON CODE                       @D64ADVB 02360051
*-------------------------------------------------------------*@D64ADVB 02370051
DFWKRETC DS    F             RETURN CODE                       @D64ADVB 02380051
DFWKRCOD EQU   DFWKRETC+3    RETURN CODE LAST BYTE             @D64ADVB 02390051
DFWKX1LN EQU   *-DFWKUSEN    LENGTH OF AREA TO BE CLEARED      @D64ADVB 02400051
*-------------------------------------------------------------*@D64ADVB 02410051
*       LOAD PARAMETER LIST - MVS PLATFORM                     @D64ADVB 02420051
DFWKPHNM DS    A             ADDR OF DE / EP / EPLOC           @D64ADVB 02430051
DFWKADCB DS    A             ADDR OF DCB - IF ANY (DEFAULT = 0)@D64ADVB 02440051
DFWKPLFM DS    XL1           FORMAT OF PARAMETER LIST          @D64ADVB 02450051
*                            - CURRENTLY 0                     @D64ADVB 02460051
DFWKOPT0 DS    XL1           OPTION BYTE 0                     @D64ADVB 02470051
DFWKOPT1 DS    XL1           OPTION BYTE 1                     @D64ADVB 02480051
DFWKDESP EQU   X'80'         DE SPECIFIED                      @D64ADVB 02490051
DFWKERET EQU   X'20'         ERRET SPECIFIED                   @D64ADVB 02500051
DFWKGLBY EQU   X'10'         GLOBAL SPECIFIED                  @D64ADVB 02510051
DFWKGLBF EQU   X'08'         GLOBAL-F SPECIFIED                @D64ADVB 02520051
DFWKADDR EQU   X'04'         ADDR SPECIFIED                    @D64ADVB 02530051
DFWKLDRX EQU   X'01'         LOADPT SPECIFIED                  @D64ADVB 02540051
DFWKOPT2 DS    XL1           OPTION BYTE 2                     @D64ADVB 02550051
DFWKNAPF EQU   X'80'         ADRNAPF SPECIFIED                 @D64ADVB 02560051
DFWKALDP DS    A             ADDR WHERE LOAD ADDR TO BE SAVED  @D64ADVB 02570051
DFWKPLEN EQU   *-DFWKPHNM    LENGTH OF PARAMETER LIST          @D64ADVB 02580051
*-------------------------------------------------------------*@D64ADVB 02590051
*       LOAD PARAMETER LIST - VSE PLATFORM                     @D64ADVB 02600051
         ORG   DFWKPHNM                                        @D64ADVB 02610051
DFWKPHPT DS    A             POINTER TO REQUEST PHASENAME               02620051
DFWKLIST DS    A             POINTER TO LOCAL LIST             @D64ADVB 02630051
         DS    X             FORMAT X'FF'                      @D64ADVB 02640051
DFWKFLAG DS    X             FLAG BYTE -- OPTIONS                       02650051
*----- DFWKFLAG EQUATES---------------------------------------*@D64ADVB 02660051
         SPACE 1                                               @D64ADVB 02670051
FLRETCOD EQU   X'80'              RETURN CODE REQUESTED        @D64ADVB 02680051
SVAUPD   EQU   X'40'              LOAD/REPLACE SVA PHASE       @D64ADVB 02690051
SDLUPD   EQU   X'20'              SDL=YES IN SLOAD MACRO       @D64ADVB 02700051
SDLFORM  EQU   X'08'              DE=SDL IN SLOAD MACRO        @D64ADVB 02710051
SYSLIST  EQU   X'04'              SCH SCIL FIRST OPTION        @D64ADVB 02720051
DENTRY   EQU   X'02'              DE=YES | VSE                 @D64ADVB 02730051
NTXTNTRY EQU   X'01'              NOTEXT LOAD OPTION           @D64ADVB 02740051
SIZNAME  EQU   NTXTNTRY           HPROG-MACRO (SVC_51) WITH ...        *02750051
                                        ...SIZE = PHASENAME    @D64ADVB 02760051
         ORG   ,                                               @D64ADVB 02770051
*-------------------------------------------------------------*@D14CDVB 02780051
* DFWKNAME-DFWKASLB ARE IDENTICAL TO  S D L  ENTRY            *@D14CDVB 02790051
* FOR BIT EQUATES COMPARE LIBRARIAN MACRO INLCSDLE            *@D149DFG 02800051
*-------------------------------------------------------------*@D14CDVB 02810051
DFWKNAME DS    CL8           PHASENAME                                  02820051
DFWKEGEN DS    CL1           RESERVED                          @D14CDVB 02830051
         DS    XL1           ATTRIBUTES                        @D14CDVB 02840051
         DS    H             OFFSET OF PRBA_ADDR               @D14CDVB 02850051
DFWKERBA DS    F             RELATIVE BLOCK ADDRESS            @D14CDVB 02860051
DFWKECON DS    H             NUMBER OF CONTIGUOUS BLOCKS       @D14CDVB 02870051
         DS    H             RESERVED                          @D14CDVB 02880051
DFWKESWT DS    X             INDICATORS                        @D14CDVB 02890051
DFWKEMVS DS    X             STATUS  MOVE_-MODE                @D14CDVB 02900051
         DS    XL2           RESERVED                          @D14CDVB 02910051
DFWKEPLN DS    F             LENGTH OF PHASE IN BYTES          @D14CDVB 02920051
DFWKELPL DS    A             LOAD POINT AT LINKAGE EDIT        @D14CDVB 02930051
DFWKEEPL DS    A             ENTRY POINT AT LINKAGE EDIT       @D14CDVB 02940051
DFWKEBGP DS    A             PARTITION START AT LINK EDIT      @D14CDVB 02950051
DFWKERLD DS    H             NUMBER OF RLD ITEMS               @D14CDVB 02960051
DFWKERDA DS    CL6           PRBA OF RLD ITEM                  @D14CDVB 02970051
DFWKBYTE DS    X             SWITCH                            @D52VDMZ 02980051
DFWK3BAC EQU   X'80'         3BYTE  ADDR IN RMODE ANY PHASE    @D52VDMZ 02990051
         DS    X             RESERVED                          @D52VDMZ 03000051
DFWKESLA DS    CL6           PRBA OF SLMAP                     @D14CDVB 03010051
DFWKEVLE DS    A             ENTRY POINT IN SVA(VL)            @D14CDVB 03020051
DFWKLBID DS    A             LIBRARIAN IDENTIFIER OF PHASE     @D14CDFG 03030051
DFWKALIB DS    A             ADDRESS OF LIB_DEF_TAB            @D14CDVB 03040051
DFWKASLB DS    A             ADDRESS OF SUBLIB_DEF_TAB         @D14CDVB 03050051
DFWKEND  EQU   *             END OF DE LAY-OUT                 @D14CDVB 03060051
DFWKANAM DS    F             ADDRESS PHASE NAME                @D14CDVB 03070051
DFWKCOMG DS    F             POINTER TO ACTUAL COMREG          @D14CDVB 03080051
*-------------------------------------------------------------*@D14CDVB 03090051
* DFWKALIB-DFWKCOMG USED AS SECURITY INTERFACE                *@D14CDVB 03100051
*-------------------------------------------------------------*@D14CDVB 03110051
DFWKANCS DS    F                                               @D64ADVB 03120051
ANCSAV1  EQU   DFWKANCS      POINTER TO ANCHOR TABLE           @D64ADVB 03130051
DFCBMACN DS    A             ADDRESS OF CURRENT MACRO NAME     @D64ADVB 03140051
ANCSAV   EQU   DFCBMACN      POINTER TO DIRECTORY ENTRY        @D64ADVB 03150051
FTCHWALN EQU   *-DFWK1STL    LENGTH OF FETCH WORK AREA         @D36IDFG 03160051
LFCHWORK EQU   *-DFWK1STL    LENGTH OF FETCH WORK AREA         @D36IDFG 03170051
*------- END OF FETCH WORK AREA ------------------------------*         03180051
         ORG   TCBWAREA                                        @D36IDVB 03190051
*------- SVC WORK AREA ---------------------------------------*         03200051
* USER:  SVC  0 (DURING CCW-TRANSL)                            @D369DFG 03210051
*        SVC 44 (WHEN CALLING TFIX)                            @D369DFG 03220051
*        SVC 61 (SVCSV3 ONLY, WHEN CALLING PFIX/GETREAL)       @D369DFG 03230051
*        SVC 65 (BEFORE CALLING FETCH)                         @D369DFG 03240051
*        SVC 98 (TO REMOVE TRANSIENT INFORM. FROM PUB ENTRY)   @D369DFG 03250051
SVCSV3   DS    16F           SAVE AREA FOR REGS 9-8            @D36IDFG 03260051
SVCWORK  DS    16F           WORK AREA / REGISTER SAVE AREA    @D61PDOW 03270051
SVCWORKA DS    16F           WORK AREA / SAVE AREA             @D64ADOW 03280051
SVCWORKB DS    6F            SMALL SAVE AREA (24 BYTES)        @D64ADOW 03290051
LSVCWORK EQU   *-TCBWAREA    LENGTH OF SVC WORK AREA           @D36IDFG 03300051
*------- END OF SVC WORK AREA --------------------------------*         03310051
         ORG   TCBWAREA                                        @D36IDFG 03320051
*------- CCW TRANSLATION WORK AREA ---------------------------*         03330051
TCBFLAG  DS    X             FLAG BYTE                         @D36IDFR 03340051
TCBDC    EQU   X'80' .         0  DATA CHAINING SPECIFIED            EM 03350051
TCBRDS   EQU   X'40' .         1  READ/SENSE COMMAND SPECIFIED       EM 03360051
TCBRDB   EQU   X'20' .         2  READ BACKWARD COMMAND SPECIFIED    EM 03370051
TCBSM1   EQU   X'10' .         3  STATUS MODIFIER COMMAND AND DC     EM 03380051
TCBSM2   EQU   X'08' .         4  STATUS MODIFIER COMMAND            EM 03390051
FXGETBL  EQU   X'04' .         5  REQ FOR FIXINF BLK           @D35CDJR 03400051
CHKSTM   EQU   X'02'           6  CHECK STATMOD 1287/3890      @D36ZDWK 03410051
GETDCBL  EQU   X'01'           7  DOUBLE COPY BLOCK REQUESTED  @D37ADWK 03420051
ADBTAMCB DS    X             ADDITIONAL BLOCKS NEEDED BY BTAM        EM 03430051
         DS    X             RESERVED                          @D14ADWK 03440051
CCWTFLG2 DS    X             CCW-TRANSLATION SECOND FLAG BYTE  @D14ADWK 03450051
CCWTFIDA EQU   X'80'           0 FIX IDAL REQUEST              @D14ADWK 03460051
CCWTPAF  EQU   X'40'           1 PAGE ALREADY FIXED            @D14ADWK 03470051
TCBMIPLC EQU   X'20'           2 MODIFY IPL READ CMD FOR 3590  @D61SDMZ 03480051
*                              3-7  RESERVED                   @D14ADWK 03490051
DEVSTPTR DS    A             POINTER TO STAT. MOD. LIST        @DS28005 03500051
DEVCDPTR DS    A             POINTER TO CONTR. COMM. LIST      @DS28005 03510051
LINEPTR  DS    A                                                        03520051