         MACRO                                                          00010000
&NAME    MAPTODC  &DSECT=YES                                            00020000
         LCLC  &C,&S,&L                                                 00021000
.*       IBM DISK OPERATING SYSTEM                            *         00022000
*        SUPERVISOR - MAPTODC - 5686-066                      *         00023000
         AGO   .ZZZ                                                     00024000
*        LICENSED MATERIALS - PROPERTY OF IBM                 *         00025000
*        THIS MACRO IS "RESTRICTED MATERIALS OF IBM"          *         00025100
*        5686-066 (C) COPYRIGHT IBM CORP. 1996                *         00025200
*        SEE COPYRIGHT INSTRUCTIONS                           *         00025300
* A000000-999999                                               @D63JDUL 00025402
.ZZZ     ANOP                                                           00025500
***************************************************************         00025600
*        TOD CLOCK COMMUNICATION AREA                         *         00025700
***************************************************************         00025800
         AIF   (T'&NAME EQ 'O').NONAME                                  00025900
&L       SETC  '&NAME'                                                  00026000
         AGO   .YNAME                                                   00026100
.NONAME  ANOP                                                           00027000
&L       SETC  'TODADR'                                                 00028000
.YNAME   ANOP                                                           00029000
         AIF   (T'&DSECT EQ 'O').PRDS                                   00029100
         AIF   ('&DSECT' EQ 'YES').PRDS                                 00029200
         AIF   ('&DSECT' EQ 'NO').INLINE                                00029300
.PRDS    ANOP                                                           00029400
         SPACE 5                                                        00029500
&C       SETC  'S'                SET TO 'DS' DEFINITION                00029600
&S       SETC  ' '                SET SEPARATOR                         00029700
&L       DSECT                                                          00029800
         AGO   .GENTOD            GO GENERATE DSECT                     00029900
.INLINE  ANOP                                                           00030000
&C       SETC  'C'                SET TO 'DC' DEFINITION                00040000
&S       SETC  ''                 NO SEPARATOR                          00050000
&L       DS    0F                                                       00060000
.GENTOD  ANOP  .                                                        00070000
GMTDATE  D&C   XL9&S.'00'          GREENWICH DATE,                      00080000
GMTDTDEL D&C   C&S.'*'             DELIMITER FOR DATE FIELD             00090000
SYSTEMZN D&C   AL2&S.(0)           SYSTEM ZONE                          00100000
SYSTEMCC D&C   AL2&S.(0)           CENTURY OF GMT DATE                  00110000
SYSZNID  D&C   CL3&S.'   '         TIME ZONE ID (E.G. GMT)              00120000
         DS    CL3                 RESERVED                             00130000
SYSZNTAB D&C   A&S.(0)             ADDRESS OF ZONE BOUNDARY TABLE       00140000
GMTDATLN EQU   *-GMTDATE           LENGTH                               00150001
         MEND                                                           00160000
