* %GOTO MMAPVIOR;  /*  PLS COMMENT COVERING ASSEMBLER CODE  --->        00050000
         MACRO                                                          00100000
&NAME    MAPVIORB &DSECT=YES                                            00150000
.*                                                                      00200000
.*       IBM DISK OPERATING SYSTEM                                      00250000
*        SUPERVISOR - MAPVIORB - 5686-007-06-C44               @D31UDRP 00300000
.************************************************************* @D31UDRP 00350000
.*                                                           *          00400000
         AGO   .ZZZ                                          * @D31UDRP 00450000
*        THIS MACRO IS "RESTRICTED MATERIALS OF IBM"         * @D31UDRP 00500000
*        5686-007 (C) COPYRIGHT IBM CORP. 1981, 1988         * @D31UDRP 00550000
*        ALL RIGHTS RESERVED                                 * @D31UDRP 00600000
*        LICENSED MATERIALS-PROPERTY OF IBM                  * @D31UDRP 00650000
.*       SEE COPYRIGHT INSTRUCTIONS, G120-2083               * @D31UDRP 00700000
.ZZZ     ANOP                                                * @D31UDRP 00750000
.*                                                           * @D31UDRP 00800000
.************************************************************* @D31UDRP 00850000
.**** START OF SPECIFICATIONS ***************************************** 00900000
.*                                                                      00950000
.*01* MODULE-TYPE = MACRO                                               01000000
.*                                                                      01050000
.*01* DESCRIPTIVE NAME = MAPPING OF VIORB                               01100000
.*                                                                      01150000
.*  STATUS           =  NEW MACRO - FIRST RELEASE AF 2.1                01200000
.*                                                                      01250000
.*  FUNCTION         =  SHOW LAYOUT OF VIO REQUEST BLOCK                01300000
.*  NOTES            =  NONE                                            01350000
.*  DEPENDENCIES     =  NONE                                            01400000
.*  RESTRICTIONS     =  NONE                                            01450000
.*  REGISTER CONVENT.=  NONE                                            01500000
.*  PATCH LABEL      =  NONE                                            01550000
.*  MACRO TYPE       =  BILINGUAL                                       01600000
.*  PROCESSOR        =  ASM/PLS                                         01650000
.*  MACRO SIZE       =  SEE OUTPUT                                      01700000
.*  ATTRIBUTES       =  MAPPING DSECT OR DEFINED STORAGE AREA           01750000
.*  ENTRY POINT      =  &NAME OR VIORBADR                               01800000
.*  PURPOSE          =  SEE FUNCTION                                    01850000
.*  LINKAGE          =  SEE INPUT                                       01900000
.*  CALLER           =                                                  01950000
.*  INPUT            =                                                  02000000
.*                      &NAME    MAPVIORB  DSECT=YES/NO                 02050000
.*                                         DEFAULT: DSECT=YES           02100000
.*                                                                      02150000
.*  OUTPUT           =  DSECT OF VIORB OR DEFINED STORAGE AREA          02200000
.*                                                                      02250000
.*  EXIT NORMAL      =  MACRO EXPANSION                                 02300000
.*                                                                      02350000
.*  EXIT ERROR       =  NONE                                            02400000
.*                                                                      02450000
.*  EXTERNAL REFEREN.=  NONE                                            02500000
.*  ROUTINES         =  NONE                                            02550000
.*  DATA AREAS       =  NONE                                            02600000
.*  CONTROL BLOCKS   =  NONE                                            02650000
.*  TABLES           =  NONE                                            02700000
.*  MACROS           =  NONE                                            02750000
.*  CHANGE ACTIVITIES=  NEW MACRO   FIRST RELEASE AF 2.1                02800000
.*  MODIFIED REGISTER=  NONE                                            02850000
.*                                                                      02900000
.*  A000000-999999                                             @D14BDWK 02950000
.*                                                                      03000000
.** END OF SPECICATIONS *********************************************** 03050000
.*                                                                      03100000
         AIF   ('&DSECT' NE 'NO').GENDSCT                               03150000
         AIF   (T'&NAME EQ 'O').CSNAME GENERATE CSECT NAME              03200000
&NAME    DS    0H'0'                   VIO REQUEST BLOCK                03250000
VIORBADR EQU   &NAME                   SET COMMON NAME                  03300000
         AGO   .GENDATA                                                 03350000
.CSNAME  ANOP                                                           03400000
VIORBADR DS    0H'0'                   VIO REQUEST BLOCK                03450000
         AGO   .GENDATA                                                 03500000
.GENDSCT ANOP                                                           03550000
         AIF   (T'&NAME EQ 'O').DSNAME GENERATE DSECT NAME              03600000
&NAME    DSECT ,                       VIORB LAYOUT                     03650000
VIORBADR EQU   &NAME                   SET COMMON NAME                  03700000
         AGO   .GENDATA                                                 03750000
.DSNAME  ANOP                                                           03800000
VIORBADR DSECT ,                       VIO REQUEST BLOCK                03850000
.GENDATA ANOP                                                           03900000
         DS    H                       RESERVED                         03950000
VIORBCM1 DS    X                       COMMUNICATION BYTE               04000000
VIORBTRB EQU   X'80'                   VIOPOINT REQUEST COMPLETE        04050000
VIORBRTC DS    X                       RETURN CODE                      04100000
VIORBEOF EQU   X'04'                   REQUESTED BLOCK OUTSIDE AREA     04150000
VIORBERR EQU   X'08'                   UNRECOVERABLE ERROR              04200000
VIORBINC EQU   X'0C'                   INCONSISTENT STATE               04250000
VIORBASZ DS    F                       ACTUAL SIZE OF AREA IN BYTES     04300000
VIORBBSZ DS    F                       SIZE OF A BLOCK IN BYTES         04350000
VIORBPNT DS    A                       VIRT.ADDR. OF CURRENT BLOCK      04400000
VIORBRBA DS    F                       RBA OF CURRENT BLOCK             04450000
VIORBASR DS    F                       ADDR.OF SERVICE ROUTINE          04500000
         MEND                                                           04550000
*    THE PL/S MAP HAS TO BE %INCLUDED                                   04600000
*    END OF PL/S COMMENT                                      --->   */ 04650000
*%MMAPVIOR : ;                      /*                               */ 04700000
*/*                                                                  */ 04750000
*/*      SUPERVISOR - MAPVIORB - 5686-007-06-C44                     */ 04800000
*/*                                                                  */ 04850000
*    DCL 1     MAPVIORB BASED,      /* VIORB LAYOUT                  */ 04900000
*         2    *        CHAR(2),    /* RESERVED                      */ 04950000
*         2    VIORBCM1 BIT(8),     /* COMMUNICATION BYTE            */ 05000000
*         2    VIORBRTC BIT(8),     /* RETURN CODE                   */ 05050000
*         2    VIORBASZ FIXED(31),  /* ACTUAL SIZE OF AREA IN BYTES  */ 05100000
*         2    VIORBBSZ FIXED(31),  /* SIZE OF A BLOCK IN BYTES      */ 05150000
*         2    VIORBPNT PTR(31),    /* VIRT. ADDR. OF CURRENT BLOCK  */ 05200000
*         2    VIORBRBA FIXED(31),  /* RBA OF CURRENT BLOCK          */ 05250000
*         2    VIORBASR FIXED(31);  /* ADDR.OF SERVICE ROUTINE       */ 05300000
*                                   /*                               */ 05350000
* /*  VALUES OF VIORBCM1 :                                           */ 05400000
*    DCL  VIORBTRB BIT(8) CONSTANT('80'X);                              05450000
*                                   /* VIOPOINT REQUEST COMPLETE     */ 05500000
*                                   /*                               */ 05550000
* /*  VALUES OF VIORBRTC :                                           */ 05600000
*                                   /*                               */ 05650000
*    DCL  VIORBEOF BIT(8) CONSTANT('04'X);                              05700000
*                                   /* REQUESTED BLOCK OUTSIDE AREA  */ 05750000
*    DCL  VIORBERR BIT(8) CONSTANT('08'X);                              05800000
*                                   /* UNRECOVERABLE ERROR           */ 05850000
*    DCL  VIORBINC BIT(8) CONSTANT('0C'X);                              05900000
*                                   /* INCONSISTENT STATE            */ 05950000
*                                   /*                               */ 06000000
