         MACRO                                                          00004500
&NAME    MAPZNBDY &DSECT=YES                                            00004600
         LCLC  &C,&S,&L                                                 00004700
.*       IBM DISK OPERATING SYSTEM                            *         00004800
*        SUPERVISOR - MAPZNBDY - 5686-066                     *         00005000
         AGO   .ZZZ                                                     00006000
*        LICENSED MATERIALS - PROPERTY OF IBM                 *         00007000
*        THIS MACRO IS "RESTRICTED MATERIALS OF IBM"          *         00008000
*        5686-066 (C) COPYRIGHT IBM CORP. 1996                *         00009000
*        SEE COPYRIGHT INSTRUCTIONS                           *         00009100
* A000000-999999                                               @D63JDUL 00009202
.ZZZ     ANOP                                                           00009300
***************************************************************         00009400
*        SYSTEM TIME ZONE BOUNDARY AND DEFINITION TABLE       *         00009500
***************************************************************         00009600
         AIF   (T'&NAME EQ 'O').NONAME                                  00009700
&L       SETC  '&NAME'                                                  00009800
         AGO   .YNAME                                                   00009900
.NONAME  ANOP                                                           00010000
&L       SETC  'ZONETAB'                                                00010100
.YNAME   ANOP                                                           00011000
         AIF   (T'&DSECT EQ 'O').PRDS                                   00012000
         AIF   ('&DSECT' EQ 'YES').PRDS                                 00013000
         AIF   ('&DSECT' EQ 'NO').INLINE                                00014000
.PRDS    ANOP                                                           00015000
         SPACE 5                                                        00016000
&C       SETC  'S'                     SET TO 'DS' DEFINITION           00017000
&S       SETC  ' '                     SET SEPARATOR                    00018000
&L       DSECT                                                          00019000
         AGO   .GENZON                 GO GENERATE DSECT                00019100
.INLINE  ANOP                                                           00019200
&C       SETC  'C'                     SET TO 'DC' DEFINITION           00019300
&S       SETC  ''                      NO SEPARATOR                     00019400
&L       DS    0F                                                       00019500
.GENZON  ANOP  .                                                        00019600
ZBDYTAB  DS    0H                      ZONE BOUNDARY TABLE              00019700
         D&C   CL8&S.'*ZONEBDY'        EYE CATCHER                      00019803
ZBDY#E   D&C   H'0'                    NUMBER OF ZONE BOUNDARY ENTRIES  00019900
         D&C   (ZONBMAX#)XL12&S.'00'   ZONE BOUNDARIES                  00020001
         ORG   ZBDY#E+2                DESCRIBE ONE ENTRY               00030000
ZBDYTIMV DS    XL8                     TIME VALUE                       00040000
ZBDYZNID DS    CL4                     ZONE ID                          00050000
ZBDYLEN  EQU   *-ZBDYTIMV              LENGTH OF AN ENTRY               00060000
         ORG   ,                                                        00070000
ZDEFTAB  DS    0H                      ZONE DEFINITION TABLE            00080000
         D&C   CL8&S.'*ZONEDEF'        EYE CATCHER                      00090003
ZDEF#E   D&C   H'0'                    NUMBER OF ZONE DEFINITION ENTRS  00100000
         D&C   (ZONDMAX#)XL6&S.'00'    ZONE DEFINITIONS                 00110001
         ORG   ZDEF#E+2                DESCRIBE ONE ENTRY               00120000
ZDEFZNID DS    CL4                     ZONE ID                          00130000
ZDEFZONV DS    XL2                     ZONE VALUE                       00140000
ZDEFLEN  EQU   *-ZDEFZNID              LENGTH OF AN ENTRY               00150000
         ORG   ,                                                        00160000
ZONETABL EQU   *-ZBDYTAB               LENGTH OF ZONE TABLE             00170000
ZONDMAX# EQU   10                      MAXIMUM ZONEDEF ENTRIES          00180001
ZONBMAX# EQU   20                      MAXIMUM ZONEBDY ENTRIES          00181001
         MEND                                                           00190000
