*/*                                                                     00050000
         MACRO                                                          00100000
&NAME    MGCRE &MF=¬,&TEXT=¬,&CMDFLAG=¬,&CONSID=¬,&CONSNAME=¬,         X00150000
               &TOKEN=¬,&CART=¬,&UTOKEN=¬                          @D1C 00200000
.*********************************************************************  00250000
.*                                                                   *  00300000
.*01* MACRO NAME = MGCRE                                             *  00350000
.*                                                                   *  00400000
.*01* DESCRIPTIVE NAME = MGCRE MACRO                                 *  00450000
.*                                                                   *  00500000
.*01* COPYRIGHT =                                                    *  00550000
.*                5695-047                                           *  00600000
.*                THIS MODULE IS "RESTRICTED MATERIALS OF IBM"       *  00650000
.*                (C) COPYRIGHT IBM CORP. 1990                       *  00700000
.*                LICENSED MATERIALS - PROPERTY OF IBM               *  00750000
.*                                                                   *  00800000
.*01* STATUS    = HBB4410                                            *  00850000
.*                                                                   *  00900000
.*01* FUNCTION  =                                                    *  00950000
.*                                                                   *  01000000
.*       THE MGCRE MACRO IS USED TO BUILD A PARAMETER LIST           *  01050000
.*       FOR SVC 34 COMMAND PROCESSING.                              *  01100000
.*                                                                   *  01150000
.*                                                                   *  01200000
.*02* OPERATION =                                                    *  01250000
.*                                                                   *  01300000
.*       MGCRE AS AN INTERFACE FOR SVC 34 COMMANDS WILL:             *  01350000
.*         - BUILD THE MGCRE PARAMETER LIST WITH THE PARAMETERS      *  01400000
.*           SUPPLIED BY THE ISSUER                                  *  01450000
.*         - PLACE THE ADDRESS OF THE PARAMETER LIST INTO REGISTER 1 *  01500000
.*         - ISSUE SVC 34                                            *  01550000
.*                                                                   *  01600000
.*01* USAGE     =                                                    *  01650000
.*                                                                   *  01700000
.*       THIS MACRO MAY BE USED BY AUTHORIZED USERS TO BUILD THE     *  01750000
.*       MGCRE PARAMETER LIST AND ISSUE SVC 34.                      *  01800000
.*                                                                   *  01850000
.*01* INVOCATION =                                                   *  01900000
.*                                                                   *  01950000
.*     SPECIFY:     MGCRE  TEXT=,CMDFLAG=,CONSID=,CONSNAME=,         *  02000000
.*                         TOKEN=,MF=,CART=,UTOKEN=               @D1C  02050000
.*                                                                   *  02100000
.*                                                                   *  02150000
.*     WHERE:       TEXT     = POINTER TO A DATA AREA CONTAINING     *  02200000
.*                             THE 2-BYTE COMMAND TEXT LENGTH        *  02250000
.*                             IMMEDIATELY FOLLOWED BY THE COMMAND   *  02300000
.*                             TEXT.  IF A REGISTER IS USED, IT      *  02350000
.*                             CONTAINS THE ADDRESS OF A DATA        *  02400000
.*                             AREA CONTAINING THE COMMAND TEXT      *  02450000
.*                             LENGTH FOLLOWED BY THE COMMAND TEXT.  *  02500000
.*                             THE MAXIMUM LENGTH OF THE TEXT IS     *  02550000
.*                             126 CHARACTERS.                       *  02600000
.*                                                                   *  02650000
.*                  CMDFLAG  = THIS FIELD IS OPTIONAL. VALID         *  02700000
.*                             VALUES ARE:                           *  02750000
.*                             COMMTASK - COMMAND WAS RE-ISSUED      *  02800000
.*                                        INTERNALLY BY IEAVC700     *  02850000
.*                                        (COMM TASK COMMAND QUEUER).*  02900000
.*                                        THIS OPERAND IS MUTUALLY   *  02950000
.*                                        EXCLUSIVE WITH SUBSYS.     *  03000000
.*                                        NOT SUPP. FOR VSE   @D61CDFG  03025061
.*                                                                   *  03050000
.*                             EXPLAIN  - EXPLANATION REQUEST @D61CDFG  03056261
.*                                        (REDEFINES COMMTASK FLAG)  *  03062461
.*                                        INPUT IS A SEARCH TOKEN    *  03068661
.*                                        (E.G. A MESSAGE CODE)      *  03074861
.*                                        THIS OPERAND IS UNIQUE     *  03081061
.*                                        TO VSE.                    *  03087261
.*                                                                   *  03093461
.*                             SUBSYS   - COMMAND WAS ISSUED BY A    *  03100000
.*                                        SUBSYSTEM OUT OF THE SSI.  *  03150000
.*                                        THIS OPERAND IS MUTUALLY   *  03200000
.*                                        EXCLUSIVE WITH COMMTASK.   *  03250000
.*                                        NOT SUPP. FOR VSE   @D61CDFG  03275061
.*                                                                   *  03300000
.*                             NOHCPY   - COMMAND IS NOT TO BE       *  03350000
.*                                        HARDCOPIED.                *  03400000
.*                                        NOT SUPP. FOR VSE   @D61CDFG  03425061
.*                                                                   *  03450000
.*                  CONSID   = CONTAINS 4-BYTE CONSOLE ID OF THE     *  03500000
.*                             CONSOLE ISSUING THE COMMAND. IF A     *  03550000
.*                             REGISTER IS USED, IT CONTAINS A       *  03600000
.*                             4-BYTE CONSOLE ID. THIS KEYWORD IS    *  03650000
.*                             MUTUALLY EXCLUSIVE WITH CONSNAME.     *  03700000
.*                                                                   *  03750000
.*                  CONSNAME = CONTAINS A 2-8 CHARACTER CONSOLE      *  03800000
.*                             NAME, LEFT JUSTIFIED AND PADDED       *  03850000
.*                             WITH BLANKS. IF A REGISTER IS USED,   *  03900000
.*                             IT CONTAINS THE ADDRESS OF AN         *  03950000
.*                             8-BYTE FIELD CONTAINING THE 2-8       *  04000000
.*                             CHARACTER CONSOLE NAME.  THIS KEYWORD *  04050000
.*                             IS MUTUALLY EXCLUSIVE WITH CONSID.    *  04100000
.*                                                                   *  04150000
.*                  TOKEN      CONTAINS A 31-BIT RIGHT            @01C  04200000
.*                             JUSTIFIED TOKEN THAT IS            @01C  04250000
.*                             ASSOCIATED WITH THIS COMMAND. IF   @01C  04300000
.*                             A REGISTER IS USED, THE REGISTER   @01C  04350000
.*                             WILL CONTAIN A 31-BIT RIGHT        @01A  04400000
.*                             JUSTIFIED TOKEN.  THIS FIELD IS    @01A  04450000
.*                             OPTIONAL.                          @01A  04500000
.*                             NOT SUPPORTED ON VSE           @D61CDFG  04525061
.*                                                                *     04550000
.*                  CART     = SPECIFIES THE ADDRESS OF THE       @L1A  04600000
.*                             8-BYTE COMMAND AND RESPONSE TOKEN  @L1A  04650000
.*                             (CART).  IF A REGISTER IS USED, IT @L1A  04700000
.*                             SPECIFIES A 31-BIT ADDRESS         @L1A  04750000
.*                             POINTER TO THE CART.  THIS FIELD   @L1A  04800000
.*                             IS OPTIONAL.                       @L1A  04850000
.*                                                                   *  04900000
.*                  UTOKEN   = POINTER TO A DATA AREA CONTAINING  @D1A  04950000
.*                             A SECURITY TOKEN (UTOKEN).         @D1A  05000000
.*                             IT IS USED IN SVC 34 PROCESSING    @D1A  05050000
.*                             TO CHECK THE ISSUER'S AUTHORITY.   @D1A  05100000
.*                             IF A REGISTER IS USED, IT          @D1A  05150000
.*                             CONTAINS THE ADDRESS OF A DATA     @D1A  05200000
.*                             AREA CONTAINING THE UTOKEN.        @D1A  05250000
.*                             THIS FIELD IS OPTIONAL.            @D1A  05300000
.*                                                                @D1A  05350000
.*                  MF       = SPECIFIES THE TYPE OF EXPANSION       *  05400000
.*                             THAT IS REQUIRED.  VALID VALUES       *  05450000
.*                             ARE: E OR L.                          *  05500000
.*                                                                   *  05550000
.*01* DEPENDENCIES    = NONE                                         *  05600000
.*                                                                   *  05650000
.*01* CHANGE ACTIVITY =                                              *  05700000
.*      $L0 = CNMGEMG, HBB4410, 870424, PDU9: CONSOLE MERGE STAGE II *  05750000
.*      $L1 = TSOOP,   HBB4410, 870831, PDDI: TSO OPERATOR           *  05800000
.*      $L2 = TSOOP7CW HBB4410, 880420, PDCW: TSO OPERATOR           *  05850000
.*      $D1 = DCR238,  HBB4410, 890814, PDEF: SP410 BARLOW SUPPORT   *  05900000
.*      $01 = OY38182, HBB4410, 910110, PDHE: DEFINE TOKEN AS 31-BIT *  05950000
.*                                            TO MATCH MGCR          *  06000000
.*            D53CDFG                       : ADAPTED FOR VSE/ESA    *  06025061
.*                                                                   *  06050000
.*01* MACROS          = THE PARAMETER LIST GENERATED BY THIS MACRO   *  06100000
.*                      IS MAPPED BY IEZMGCRE.  HOWEVER, IEZMGCRE    *  06150000
.*                      NOT REQUIRED TO USE THIS MACRO.              *  06200000
.*                                                                   *  06250000
.*01* MESSAGES =  THE MGCRE MACRO WILL ISSUE THE FOLLOWING           *  06300000
.*                MNOTES UPON THE DETECTION OF SYNTAX ERRORS:        *  06350000
.*                                                                   *  06400000
.*                                                                   *  06450000
.*02*  WARNING = (SEVERITY 4)                                        *  06500000
.*                                                                   *  06550000
.*         CMDFLAG KEYWORD IGNORED.  'FFFFFFFF' VALUE IS NOT         *  06600000
.*          VALID.                                                   *  06650000
.*                                                                   *  06700000
.*         'KKKKKKKK' KEYWORD IGNORED.  NO DATA SPECIFIED.           *  06750000
.*                                                                   *  06800000
.*         'KKKKKKKK' DATA IGNORED.  NO KEYWORDS PERMITTED ON THE    *  06850000
.*           LIST FORM OF MGCRE.                                     *  06900000
.*                                                                   *  06950000
.*          KKKKKKKK(X,Y) HAS TOO MANY ARGUMENTS. ARGUMENTS          *  07000000
.*           IGNORED AFTER X.                                        *  07050000
.*                                                                   *  07100000
.*          KKKKKKKK(X,Y,Z) HAS TOO MANY ARGUMENTS. ARGUMENTS        *  07150000
.*           IGNORED AFTER Z.                                        *  07200000
.*                                                                   *  07250000
.*                                                                   *  07300000
.*                                                                   *  07350000
.*     WHERE:  'FFFFFFFF' IS NOT COMMTASK, SUBSYS, OR NOHCPY         *  07400000
.*             'KKKKKKKK' MAY BE CONSID, CONSNAME, TOKEN, TEXT,      *  07450000
.*             CMDFLAG, OR UTOKEN                                 @D1C  07500000
.*             X, Y, AND Z ARE ARBITRARY ARGUMENTS                   *  07550000
.*                                                                   *  07600000
.*02*  ERROR = (SEVERITY 12)                                         *  07650000
.*                                                                   *  07700000
.*         NO TEXT GENERATED. 'MF' VALUE IS NOT VALID.               *  07750000
.*                                                                   *  07800000
.*         NO TEXT GENERATED. 'MF' VALUE IS NOT SPECIFIED.           *  07850000
.*                                                                   *  07900000
.*         NO TEXT GENERATED. 'TEXT' VALUE IS REQUIRED BUT NOT       *  07950000
.*          SUPPLIED.                                                *  08000000
.*                                                                   *  08050000
.*         NO TEXT GENERATED.  'CMDFLAG=SUBSYS' IS MUTUALLY          *  08100000
.*          EXCLUSIVE WITH 'CMDFLAG=EXPLAIN'.                 @D61CDFG  08150061
.*                                                                   *  08200000
.*         NO TEXT GENERATED.  'CONSNAME' IS MUTUALLY EXCLUSIVE      *  08250000
.*          WITH 'CONSID'.                                           *  08300000
.*                                                                   *  08350000
.*         NO TEXT GENERATED.  CONSID OR CONSNAME IS REQUIRED        *  08400000
.*          BUT NOT SUPPLIED.                                        *  08450000
.*                                                                   *  08500000
.*         OPERAND OR OPTION XXXXXXXX NOT SUPPORTED ON VSE    @D61CDFG  08512561
.*                                                                   *  08525061
.*         MGCRE NOT SUPPORTED ON VSE FOR SPLEVEL LESS THAN 4 @D61CDFG  08537561
.*                                                                   *  08550000
.*01* ABEND CODES    = NONE                                          *  08600000
.*                                                                   *  08650000
.*********************************************************************  08700000
.*                                                                   *  08708361
.*********************************************************************  08716661
.*       G L O B A L  D E C L A R A T I O N S                        *  08724961
.*********************************************************************  08733261
         GBLC  &SYSSPLV                                       @D61CDFG  08741661
.*                                                                   *  08750000
.*********************************************************************  08800000
.*       L O C A L  D E C L A R A T I O N S                          *  08850000
.*********************************************************************  08900000
         LCLA  &CNT                     COUNTER FOR COMMAND FLAGS       08950000
         LCLA  &I                       COUNTER FOR GENERATING PARMLIST 09000000
         LCLA  &J                       LOOP VARIABLE          @D61CDFG 09025061
         LCLA  &INDX                    COUNTER FOR CLEARING FLAG  @L1A 09050000
         LCLA  &FLG2VAL                 ACCUMULATOR VALUE          @L1A 09100000
         LCLB  &IDSPEC                  CONSOLE ID SPECIFIED            09150000
         LCLB  &NMSPEC                  CONSOLE NAME SPECIFIED          09200000
         LCLB  &FLG(8)                  COMMAND FLAGS                   09250000
         LCLB  &FLG2(8)                 COMMAND FLAG - BYTE 2           09300000
         LCLB  &TEXTOK                  TEXT VALUE SPECIFIED CORRECTLY  09350000
         LCLB  &CIDOK                   CONSID VALUE SPECIFIED         X09400000
                                        CORRECTLY                       09450000
         LCLB  &CNMEOK                  CONSNAME VALUE SPECIFIED       X09500000
                                        CORRECTLY                       09550000
         LCLB  &FLGSOK                  CMDFLAG VALUES SPECIFIED       X09600000
                                        CORRECTLY                       09650000
         LCLB  &TKNOK                   TOKEN VALUE SPECIFIED CORRECTLY 09700000
         LCLB  &CARTOK                  CART VALUE SPECIFIED       @L1AX09750000
                                        CORRECTLY                  @L1A 09800000
         LCLB  &UTKNOK                  UTOKEN VALUE SPECIFIED     @D1AX09850000
                                        CORRECTLY                  @D1A 09900000
         LCLB  &FLGS2OK                 CMDFLAG VALUES SPECIFIED       X09950000
                                        CORRECTLY                  @D1A 10000000
         LCLC  &GNAME                   LOCAL NAME USED FOR BRANCHS     10050000
         LCLC  &NSUPOP                  UNSOPPORTED ON VSE     @D61CDFG 10051861
.*                                                                      10053661
.*  CHECK FOR RIGHT VSE SPLEVEL AND FOR UNSUPPORTED PARAMETERS @D61CDFG 10055461
.*                                                                      10057261
         SPLEVEL TEST                                          @D61CDFG 10059061
         AIF   ('&SYSSPLV' GE '4').VSEPARM                     @D61CDFG 10060861
         MNOTE 12,'MGCRE NOT AVAILABLE ON VSE FOR SPLEVEL LESS THAN 4' X10062661
                                                               @D61CDFG 10064461
         MEXIT                                                 @D61CDFG 10066261
.VSEPARM ANOP                                                  @D61CDFG 10068061
&NSUPOP  SETC  'TOKEN'                                         @D61CDFG 10069861
         AIF   ('&TOKEN' NE '¬').NSUPOP                        @D61CDFG 10071661
&J       SETA  0                                               @D61CDFG 10073461
.CMFLOOP AIF   (&J GE N'&CMDFLAG OR T'&CMDFLAG EQ 'O').GENVSE  @D61CDFG 10075261
&J       SETA  &J+1                     MORE CMDFLAG VALUES    @D61CDFG 10077061
&NSUPOP  SETC  'CMDFLAG=COMMTASK'                              @D61CDFG 10078861
         AIF   ('&CMDFLAG(&J)' EQ 'COMMTASK').NSUPOP           @D61CDFG 10080661
&NSUPOP  SETC  'CMDFLAG=NOHCPY'                                @D61CDFG 10082461
         AIF   ('&CMDFLAG(&J)' EQ 'NOHCPY').NSUPOP             @D61CDFG 10084261
&NSUPOP  SETC  'CMDFLAG=SUBSYS'                                @D61CDFG 10086061
         AIF   ('&CMDFLAG(&J)' EQ 'SUBSYS').NSUPOP             @D61CDFG 10087861
         AGO   .CMFLOOP                                        @D61CDFG 10089661
.NSUPOP  MNOTE 12,'OPERAND OR OPTION ''&NSUPOP'' NOT SUPPORTED ON VSE' X10091461
                                                               @D61CDFG 10093561
         MEXIT                                                 @D61CDFG 10095661
.GENVSE  ANOP                                                  @D61CDFG 10097761
.*********************************************************************  10100000
         ACTR  30000                                                    10150000
&GNAME   SETC  'IHB'.'&SYSNDX'                                          10200000
.*********************************************************************  10250000
.*       I N I T I A L I Z E  V A R I A B L E S                      *  10300000
.*********************************************************************  10350000
&CNT     SETA  0                        INITIALIZE COUNTER TO ZERO      10400000
&FLG2VAL SETA  0                        INITIALIZE FLAGS VALUE TO ZERO  10450000
&IDSPEC  SETB  0                        INDICATE CONSID NOT SPECIFIED   10500000
&NMSPEC  SETB  0                        INDICATE CONSNAME NOT SPECIFIED 10550000
&TEXTOK  SETB  0                        USED TO VERIFY THAT TEXT VALUE X10600000
                                        WAS SPECIFIED CORRECTLY         10650000
&CIDOK   SETB  0                        USED TO VERIFY THAT CONSID     X10700000
                                        VALUE WAS SPECIFIED CORRECTLY   10750000
&CNMEOK  SETB  0                        USED TO VERIFY THAT CONSNAME   X10800000
                                        VALUE WAS SPECIFIED CORRECTLY   10850000
&FLGSOK  SETB  0                        USED TO VERIFY THAT CMDFLAG    X10900000
                                        VALUE WAS SPECIFIED CORRECTLY   10950000
&TKNOK   SETB  0                        USED TO VERIFY THAT TOKEN      X11000000
                                        VALUE WAS SPECIFIED CORRECTLY   11050000
&CARTOK  SETB  0                        USED TO VERIFY THAT CART   @L1AX11100000
                                        VALUE WAS SPEC'ED CORRECTLY@L1A 11150000
&UTKNOK  SETB  0                        USED TO VERIFY THAT UTOKEN     X11200000
                                        VALUE WAS SPEC'D CORRECTLY @D1A 11250000
&FLGS2OK SETB  0                        USED TO VERIFY THAT CMDFLAG    X11300000
                                        VALUE WAS SPEC'D CORRECTLY @D1A 11350000
.*-------------------------------------------------------*.        @L1A 11400000
.*       INITIALIZE FLAGS FOR FLAG BYTE 2 TO ZERO        *.        @L1A 11450000
.*-------------------------------------------------------*.        @L1A 11500000
&INDX    SETA  1                                         *.        @L1A 11550000
.CLRFLGS ANOP                                            *.        @L1A 11600000
&FLG(&INDX) SETB  0                                      *.        @L1A 11650000
&FLG2(&INDX) SETB  0                                     *.        @D1A 11700000
&INDX    SETA  &INDX+1                                   *.        @L1A 11750000
         AIF   (&INDX LT 9).CLRFLGS                      *.        @L1A 11800000
.*-------------------------------------------------------*.        @L1A 11850000
.START   ANOP                                                           11900000
         AIF   ('&MF' NE '¬').MFSPEC      MF KEYWORD SPECIFIED ?        11950000
         MNOTE 12,' NO TEXT GENERATED. ''MF'' VALUE IS NOT SPECIFIED.'  12000000
         AGO   .EXIT                                                    12050000
.MFSPEC  ANOP                                                           12100000
         AIF   ('&MF' NE '').MFLORE       MF KEYWORD IS LIST OR EXEC    12150000
         MNOTE 12,' NO TEXT GENERATED. ''MF'' VALUE IS NOT SPECIFIED.'  12200000
         AGO   .EXIT                                                    12250000
.MFLORE  ANOP                                                           12300000
         AIF   ('&MF(1)' EQ 'L').MFLIST   LIST FORM SPECIFIED ?         12350000
         AIF   ('&MF(1)' EQ 'E').MFEXEC   EXEC FORM SPECIFIED ?         12400000
         MNOTE 12,' NO TEXT GENERATED. ''MF'' VALUE IS NOT VALID.'      12450000
         AGO   .EXIT                                                    12500000
.*********************************************************************  12550000
.*       L I S T  F O R M                                            *  12600000
.*********************************************************************  12650000
.MFLIST  ANOP                         LIST FORM WAS SPECIFIED           12700000
&NAME    DS    0H                      MGCRE PARAMTER LIST              12750000
         AIF   (N'&MF EQ 1).LTVALID   VERIFY NO PARAMETERS ON LIST FORM 12800000
         MNOTE 4,' ''MF=&MF'' HAS TOO MANY ARGUMENTS. ARGUMENTS IGNOREDX12850000
                AFTER  &MF(1,1) .'                                      12900000
.*********************************************************************  12950000
.*       NO VALUES ARE PERMITTED ON THE LIST FORM OF MGCRE.  IF      *  13000000
.*       ANY KEYWORDS ARE SPECIFIED THEY WILL BE IGNORED.            *  13050000
.*********************************************************************  13100000
.LTVALID ANOP                             LIST FORM SPECIFIED CORRECTLY 13150000
         AIF   ('&TEXT' EQ '¬').LFLAG     TEXT VALUE SPECIFIED ?        13200000
         MNOTE 4,' ''TEXT'' DATA IGNORED.  NO KEYWORDS PERMITTED ON THEX13250000
                LIST FORM OF MGCRE.'                                    13300000
.LFLAG   ANOP                                                           13350000
         AIF   ('&CMDFLAG' EQ '¬').LCID     CMDFLAG VALUE SPECIFIED ?   13400000
         MNOTE 4,' ''CMDFLAG'' DATA IGNORED.  NO KEYWORDS PERMITTED ON X13450000
               THE LIST FORM OF MGCRE.'                                 13500000
.LCID    ANOP                                                           13550000
         AIF   ('&CONSID' EQ '¬').LCNAME    CONSID VALUE SPECIFIED ?    13600000
         MNOTE 4,' ''CONSID'' DATA IGNORED.  NO KEYWORDS PERMITTED ON TX13650000
               HE LIST FORM OF MGCRE.'                                  13700000
.LCNAME  ANOP                                                           13750000
         AIF   ('&CONSNAME' EQ '¬').LTOKEN  CONSNAME VALUE SPECIFIED ?  13800000
         MNOTE 4,' ''CONSNAME'' DATA IGNORED. NO KEYWORDS PERMITTED ON X13850000
               THE LIST FORM OF MGCRE.'                                 13900000
.LTOKEN  ANOP                                                           13950000
         AIF   ('&TOKEN' EQ '¬').LCART     TOKEN VALUE SPECIFIED ? @L1C 14000000
         MNOTE 4,' ''TOKEN'' DATA IGNORED. NO KEYWORDS PERMITTED ON THEX14050000
                LIST FORM OF MGCRE.'                                    14100000
.LCART   ANOP                                                      @L1A 14150000
         AIF   ('&CART' EQ '¬').LUTOKEN     CART VALUE SPECIFIED ? @D1C 14200000
         MNOTE 4,' ''CART'' DATA IGNORED. NO KEYWORDS PERMITTED ON THE X14250000
               LIST FORM OF MGCRE.'                                @L1A 14300000
.LUTOKEN ANOP                                                      @D1A 14350000
         AIF   ('&UTOKEN' EQ '¬').LISTOK   UTOKEN VALUE SPECIFIED? @D1A 14400000
         MNOTE 4,' ''UTOKEN'' DATA IGNORED. NO KEYWORDS PERMITTED ON THX14450000
               E LIST FORM OF MGCRE.'                              @D1A 14500000
.LISTOK  ANOP                                                           14550000
.*********************************************************************  14600000
.*       G E N E R A T E  P A R A M E T E R  L I S T                 *  14650000
.*********************************************************************  14700000
         DC    AL1(0)                  FLAG FIELD '00'                  14750000
         DC    AL1(0)                  RESERVED                         14800000
&I       SETA  1                                                        14850000
.CLRFLG  ANOP                                                           14900000
&FLG(&I) SETB  0                                                        14950000
&I       SETA  &I+1                                                     15000000
         AIF   (&I LT 9).CLRFLG                                         15050000
         DC    B'&FLG(1)&FLG(2)&FLG(3)&FLG(4)&FLG(5)&FLG(6)&FLG(7)&FLG(X15100000
               8)'                     FLAG FIELD                       15150000
         DC    B'&FLG2(1)&FLG2(2)&FLG2(3)&FLG2(4)&FLG2(5)&FLG2(6)&FLG2(X15200000
               7)&FLG2(8)'             FLAG FIELD 2                @L1A 15250000
         DC    CL5'MGCRE'              CONTROL BLOCK ACRONYM 'MGCRE'    15300000
         DC    AL1(1)                  VERSION LEVEL                    15350000
         DC    AL2(0)                  RESERVED                         15400000
         DC    AL4(0)                  ADDRESS OF THE COMMAND TEXT      15450000
         DC    AL4(0)                  TOKEN                            15500000
         DC    CL8'        '           CONSOLE NAME                     15550000
         DC    AL4(0)                  CONSOLE ID                       15600000
         DC    XL1'0'                  COMMAND DISPOSITION         @L1A 15650000
         DC    XL2'0'                  COMMAND AUTHORITY LEVEL     @L1A 15700000
         DC    XL1'0'                  RESERVED                    @L1A 15750000
         DC    XL8'00'                 COMMAND AND RESPOSE TOKEN   @L1A 15800000
         DC    XL8'00'                 SYSTEM NAME                 @L1C 15850000
         DC    AL4(0)                  UTOKEN ADDRESS              @D1A 15900000
         DC    XL4'00'                 RESERVED                    @D1C 15950000
         AGO   .EXIT                                                    16000000
.*********************************************************************  16050000
.*       E X E C  F O R M                                            *  16100000
.*********************************************************************  16150000