         MACRO                                                          00050000
&NAME    NPGR  &NPGRLST=(1)                                             00100000
.*                                                                      00150000
         AGO   .ZZZ                                                     00200000
*********************************************************************** 00250000
*                                                                     * 00300000
*        THIS MACRO IS "RESTRICTED MATERIALS OF IBM"                  * 00350000
*        5686-007 (C) COPYRIGHT IBM CORP. 1981,1988                   * 00400000
*        ALL RIGHTS RESERVED                                          * 00450000
*        LICENSED MATERIALS - PROGRAM PROPERTY OF IBM                 * 00500000
.*       SEE COPYRIGHT INSTRUCTIONS, G120-2083                        * 00550000
*                                                                     * 00600000
*********************************************************************** 00650000
.ZZZ ANOP                                                               00700000
.* A000000-999999                                             *@D14BDJB 00750000
.*                                                            *         00800000
.*   MACRO NAME =  NPGR                                       *         00850000
.*                                                            *         00900000
.*   DESCRIPTIVE NAME =  PARTITION PROGRAMMER LUB             *         00950000
.*                       ALLOCATION INTERFACE                 *         01000000
.*                                                            *         01050000
.*   FUNCTION :                                               *         01100000
.*      THIS MACRO EXPANDS INTO ASSEMBLER CODE LOADING        *         01150000
.*      ALLOCATION PARAMETERS AND ISSUEING A PARTITION        *         01200000
.*      PROGRAMMER LUB ALLOCATION SVC.                        *         01250000
.*      IT IS THE INTERFACE BETWEEN THE NPGR COMMAND          *         01300000
.*      PROCESSOR (JOB CONTROL) AND THE SUPERVISOR.           *         01350000
.*                                                            *         01400000
.*      THE COMMAND PROCESSING ROUTINE ACCEPT AND SYNTAX      *         01450000
.*      CHECKS THE NPGR COMMAND. IT BUILDS A PARAMETER        *         01500000
.*      LIST CONTAINING THE USER SPECIFICATIONS, AND IT       *         01550000
.*      CALLS SVC 116 BY USING THIS MACRO. THEN SVC 116       *         01600000
.*      SETS THE NUMBER OF PARTITION PROGRAMMER LUBS          *         01650000
.*      ACCORDING TO THE SPECIFIED VALUES. ACTUAL LUB         *         01700000
.*      ALLOCATION IS DONE WHEN THE PARTITION IS STARTED.     *         01750000
.*                                                            *         01800000
.*      THE MACRO DOES NOT OBTAIN STORAGE FOR THE PARAMETER   *         01850000
.*      LIST, BUT IT SIMPLY LOADS THE ADDRESS OF THE PARA-    *         01900000
.*      METER LIST INTO REGISTER 1.                           *         01950000
.*                                                            *         02000000
.*   NOTES                                                    *         02050000
.*                                                            *         02100000
.*     DEPENDENCIES :  NONE                                   *         02150000
.*                                                            *         02200000
.*     RESTRICTIONS :  NONE                                   *         02250000
.*                                                            *         02300000
.*     REGISTER CONVENTIONS :                                 *         02350000
.*        REGISTER  1 - ADDRESS OF THE LUB ALLOCATION         *         02400000
.*                      PARAMETER LIST                        *         02450000
.*        REGISTER 15 - RETURN CODE                           *         02500000
.*                                                            *         02550000
.*     SPECIAL TERMS AND ACRONYMS :                           *         02600000
.*        NPGRLST - LUB ALLOCATION PARAMETER LIST             *         02650000
.*                                                            *         02700000
.*     PROCESSOR = PHK ASSEMBLER                              *         02750000
.*                                                            *         02800000
.*     MODULE SIZE =  N/A                                     *         02850000
.*                                                            *         02900000
.*     ATTRIBUTES = REENTRANT                                 *         02950000
.*                                                            *         03000000
.*                                                            *         03050000
.*   INPUT :  THE ADDRESS OF THE LUB ALLOCATION PARAMETER     *         03100000
.*      LIST IS SUPPLIED. THE PARAMETER LIST IS BUILT ACCOR-  *         03150000
.*      DING TO THE VALUES SPECIFIED IN THE NPGR COMMAND.     *         03200000
.*                                                            *         03250000
.*      NPGRLST =  NAME1|(R1)                                 *         03300000
.*             THE ADDRESS MAY BE SUPPLIED SYMBOLICLY OR IT   *         03350000
.*             MAY BE CONTAINED IN A REGISTER. IF THE         *         03400000
.*             OPERAND IS OMITTED REGISTER 1 IS ASSUMED TO    *         03450000
.*             CONTAIN THE ADDRESS OF THE PARAMETER LIST.     *         03500000
.*                                                            *         03550000
.*   OUTPUT :                                                 *         03600000
.*      REGISTER 15 WILL CONTAIN A PROCESSING RETURN CODE.    *         03650000
.*                                                            *         03700000
.*   EXIT :                                                   *         03750000
.*      RETURN CODE IN REGISTER 15 ACCORDING TO CONDITIONS    *         03800000
.*      DETECTED BY SVC 116.                                  *         03850000
.*      THE FOLLOWING ARE THE EXPECTED RETURN CODES :         *         03900000
.*                                                            *         03950000
.*      00 : THE SPECIFIED PARTITION PROGRAMMER LUB VALUES    *         04000000
.*           ARE ACCEPTED.                                    *         04050000
.*      08 : THE NPGR COMMAND IS REJECTED. THE SUM OF ALL     *         04100000
.*           PARTITION PROGRAMMER LUBS IS LARGER THAN THE     *         04150000
.*           SUPERVISOR GENERATED NPGR VALUE.                 *         04200000
.*      0C : THE NPGR COMMAND IS REJECTED. AT LEAST ONE OF    *         04250000
.*           THE SPECIFIED NPGR VALUE IS EITHER BELOW THE     *         04300000
.*           MINIMUM OF 20 OR ABOVE THE MAXIMUM OF 255.       *         04350000
.*      10 : THE NPGR COMMAND IS REJECTED. AT LEAST ONE OF    *         04400000
.*           THE SPECIFIED PARTITION HAS BEEN STARTED BEFORE  *         04450000
.*           (MAY BE UNBATCHED NOW).                          *         04500000
.*                                                            *         04550000
***************************************************************         04600000
         AIF   ('&NAME' EQ '').NOLABL       LABEL SPECIFIED?            04650000
&NAME    DS    0H                           GENERATE LABEL              04700000
.NOLABL  ANOP                                                           04750000
.**************************************************************         04800000
.*   PROCESS NPGRLST PARAMETER                                *         04850000
.**************************************************************         04900000
         AIF   ('&NPGRLST'(1,1) NE '(').TESTSYM  REGISTER NOTATION?     04950000
         AIF   ('&NPGRLST(1)' EQ '1').GENSVC     REGISTER 1 PASSED?     05000000
         LR    1,&NPGRLST(1)         LOAD ADDRESS OF PARM LIST          05050000
         AGO   .GENSVC               GENERATE SVC                       05100000
.TESTSYM ANOP                                                           05150000
         AIF   (T'&NPGRLST NE 'N').NPGRSYM   SYMBOLIC NPGRLST NAME?     05200000
         MNOTE 8,'NPGRLST PARAMETER INVALID - MACRO IGNORED'            05250000
         MEXIT                                                          05300000
.NPGRSYM ANOP                                                           05350000
         LA    1,&NPGRLST            LOAD ADDR OF PARMLIST              05400000
.GENSVC  ANOP                                                           05450000
         SVC   116                   LUB ALLOCATION REQ                 05500000
         MEND                                                           05550000
