         MACRO                                                          00050000
&NAME    NPGRLST  &DSECT=                                               00100000
         LCLC  &NAME1                                                   00150000
.*                                                                      00200000
         AGO   .ZZZ                                                     00250000
*********************************************************************** 00300000
*                                                                     * 00350000
*        THIS MACRO IS "RESTRICTED MATERIALS OF IBM"                  * 00400000
*        5686-007 (C) COPYRIGHT IBM CORP. 1981,1988                   * 00450000
*        ALL RIGHTS RESERVED                                          * 00500000
*        LICENSED MATERIALS - PROGRAM PROPERTY OF IBM                 * 00550000
.*       SEE COPYRIGHT INSTRUCTIONS, G120-2083                        * 00600000
*                                                                     * 00650000
*********************************************************************** 00700000
.ZZZ ANOP                                                               00750000
.* A000000-999999                                             *@D14BDJB 00800000
.*                                                            *         00850000
.*     NPGRLST : MAPPING STRUCTURE FOR THE PARTITION LUB      *         00900000
.*               ALLOCATION PARAMETER LIST AS NEEDED BY       *         00950000
.*               THE NPGR COMMAND PROCESSING ROUTINE.         *         01000000
.*               (JOB CONTROL MODULES)                        *         01050000
.*               THE NPGR COMMAND PROCESSOR OBTAINS LUB       *         01100000
.*               SIZES, AND PASSES THE VALUES SPECIFIED       *         01150000
.*               BY THE NPGR COMMAND IN THIS LIST TO          *         01200000
.*               SVC 116.                                     *         01250000
.*                                                            *         01300000
.*           THE MAPPING STRUCTURE EXPANDS EITHER INTO AN     *         01350000
.*           INLINE TABLE OR A DSECT.                         *         01400000
.*                                                            *         01450000
.*     NO OPERAND SPECIFIED - INLINE TABLE GENERATED          *         01500000
.*     DSECT=YES SPECIFIED  - DSECT GENERATED                 *         01550000
.*                                                            *         01600000
.*     CREATED BY: JOB CONTROL                                *         01650000
.*                                                            *         01700000
.*     USED BY:    JOB CONTROL AND SVC 116 OF SUPERVISOR      *         01750000
***************************************************************         01800000
         SPACE 2                                                        01850000
&NAME1   SETC  '&NAME'                                                  01900000
         AIF   (T'&NAME NE 'O').SPNAME    NAME SPECIFIED                01950000
&NAME1   SETC  'NPGRLST'                                                02000000
.SPNAME  ANOP                                                           02050000
         AIF   (T'&DSECT EQ 'O').NODSECT  INLINE CODE GENERATN?         02100000
         AIF   ('&DSECT' EQ 'YES').DSECT  DSECT GENERATION?             02150000
         MNOTE 1,'INVALID DSECT OPERAND SPECIFICATION - OPERAND IGNORED*02200000
                AND INLINE CODE GENERATED'                              02250000
.NODSECT ANOP                                                           02300000
&NAME1   DS    0H                                                       02350000
         AGO   .GENTAB                                                  02400000
.DSECT   ANOP                                                           02450000
&NAME1   DSECT                                                          02500000
.GENTAB  ANOP                                                           02550000
NPGRNOP  DS    X                   NO OF ELEMENTS IN LIST               02600000
NPGRPID  DS    X                   PARTITION IDENTIFIER                 02650000
NPGRVAL  DS    H                   PARTITION PROGRAMMER LUB VALUE       02700000
NPGRLEN  EQU   *-NPGRNOP           ENTRY LENGTH                         02750000
         MEND                                                           02800000
