*%GOTO MORE;    /* PLS COMMENTS                                @D37CDGN 00050000
         MACRO                                                          00100000
&NAME    ORE                                                            00150000
*                                                                       00200000
*********************************************************************** 00250000
*                                                                       00300000
.*       IBM VSE / ADVANCED FUNCTIONS                          @D519DGN 00350000
*        SUPERVISOR - ORE - 5686-032-06-C56                    @D519DGN 00400000
.*                                                                      00450000
         AGO   .CPRIGHT                                                 00500000
.*                                                                      00550000
*        THIS MACRO IS "RESTRICTED MATERIALS OF IBM"           @D519DGN 00600000
*        5686-032 (C) COPYRIGHT IBM CORP. 1977, 1990           @D519DGN 00650000
*        ALL RIGHTS RESERVED                                   @D519DGN 00700000
*        LICENSED MATERIALS - PROGRAM PROPERTY OF IBM          @D519DGN 00750000
.*       SEE COPYRIGHT INSTRUCTIONS, G120-2083                 @D519DGN 00800000
.CPRIGHT ANOP                                                           00850000
*                                                                       00900000
*********************************************************************** 00950000
*                                                                       01000000
* THIS MACRO DESCRIBES THE LAYOUT OF AN OPERATOR               @D34ADHB 01050000
* REPLY ELEMENT. IT IS CALLED 'ORE'.                           @D34ADHB 01100000
ORECCB   DS    4F              CCB WHICH IS USED TO WRITE THE  @CLEANGN 01150000
*                              CUT CHANNEL PROGRAM.IT IS AN    @D34ADHB 01200000
*                              UPDATED COPY OF THE USERS CCB.  @D34ADHB 01250000
OREUSCCB DS    F               ADDRESS OF USERS CCB            @CLEANGN 01300000
OREUSCCW DS    F               ADDRESS OF USERS CCW CHAIN      @CLEANGN 01350000
ORERDCCW DS    F               ADDRESS OF READ CCW IN THE      @CLEANGN 01400000
*                              USERS CHANNEL PROGRAM OR ZERO   @D34ADHB 01450000
ORERQTID DS    H               TID OF REQUESTORS TASK          @D51IDGN 01500000
OREREPLY DS    3C              REPLY ID WHICH IS PRINTED       @CLEANGN 01550000
         DS    C               RESERVED                        @D51ODGL 01600052
OREFLAG  DS    C               FLAG BYTE                       @CLEANGN 01700000
OREACTIV EQU   X'80'           INDICATES THAT ORE IS ACTIVE    @CLEANGN 01750000
ORERSTAT EQU   X'40'           ORE IN READ STATE               @CLEANGN 01800000
OREDEQER EQU   X'20'           DEQUEUE AT SIO ERR39            @CLEANGN 01850000
OREDEQUE EQU   X'10'           JUST DEQUEUE                    @CLEANGN 01900000
OREQEDER EQU   X'08'           PUB QUEUED IN ERROR WITH ORE    @CLEANGN 01950000
.*ASYCANCL EQU   X'04'         QUIESCE BECAUSE OF EOJ OR CANCEL@DBA7651 02000000
OREPRIVI EQU   X'02'           ORE OWNED BY PRIVILEGED TASK    @DY41984 02025053
OREWRAP  EQU   X'01'           ASYTASK WRAP AROUND SVC         @CLEANGN 02050000
OREPART  DS    0CL3            PART. LOGID PLUS SIGN '+ OR -'  @D51IDGN 02100000
ORELOGID DS    2C              PARTITION LOGID                 @D51IDGN 02150000
ORESIGN  DS    1C              PLUS OR MINUS SIGN              @D51IDGN 02200000
OREDSKA  DS    10C             DISK ADD OF OUTST REPLY MESSAGE @D51IDGN 02250000
ORECHQPX DS    H               CHANNEL QUEUE INDEX             @D51ODGL 02283352
         DS    2C              RESERVED                        @D51ODGL 02316652
         MEND                                                           02350000
*END OF PLS COMMENTS    */   %MORE :;                      /*@D37CDGN*/ 02400000
*@EJECT ;                                                  /*@D37CDGN*/ 02450000
*DECLARE                                                   /*@D37CDGN*/ 02500000
* 1   ORE      BASED,          /*                            @D37CDGN*/ 02550000
*  2  *        CHAR(34),       /*                            @D37CDGN*/ 02600000
*   3 OREEND   FIXED(8),       /* END INDICATOR OF ORE TABLE @D37CDGN*/ 02650000
*  2  OREFLAG  FIXED(8),       /* FLAG BYTE                  @CLEANGN*/ 02700000
*   3 *        BIT(1),         /*                            @D37CDGN*/ 02750000
*   3 ORERSTAT BIT(1);         /* ORE IN 'READ' STATE        @CLEANGN*/ 02800000
