*%GOTO  MPMCOM; /*PLS COMMENT TO AVOID UNMATCHED QUOTE PROBLEMS         00050000
         MACRO                                                          00100000
&NAME    PMCOM                                                          00150000
         GBLB  &IJBSGEN                                                 00200000
         GBLA  &AGPNSFT           SHIFT ADDRESS TO PNR         @D14KDVB 00350000
         GBLA  &AGPNBLK           SHIFT PAGE# TO BLOCK#        @D51GDRP 00450000
         GBLA  &AGPGBLK           NUMBER OF PAGES PER BLOCK    @D52VDVB 00500052
         GBLA  &AGBKPSG           NUMBER OF BLOCKS PER SEGMENT @D51GDRP 00550000
         GBLA  &AGSGSIZ           SEGMENT SIZE                 @D14KDVB 00600000
         GBLA  &AGBSIZB           BLOCKSIZE ON PDS IN BYTES    @D51GDRP 00650000
         GBLA  &AGPSIZB           PAGE SIZE                    @D14KDVB 00700000
         GBLA  &AGPGMSK           PAGE MASK                    @D14KDVB 00750000
         GBLA  &AGSGMSK           SEGMENT MASK                 @D14KDVB 00800000
         GBLA  &AGEPMSK           EPA  MASK                    @D14KDVB 00850000
         GBLA  &AGINVPT           INVALIDATION PATTERN PTE     @D14KDVB 00900000
         GBLA  &AGOFMSK           PAGE TABLE OFFSET MASK       @D14KDVB 00950000
         GBLA  &AGIBIT            IBIT MASK                    @D14KDVB 01000000
.*       IBM DISK OPERATING SYSTEM                            *         01050000
*        SUPERVISOR - PMCOM - 5686-066-06                     *         01100061
.**************************************************************         01150000
.*                                                            *@D31UDRP 01200000
         AGO   .ZZZ                                           *         01250000
*        LICENSED MATERIALS - PROPERTY OF IBM                 *@D31UDRP 01300000
*        THIS MACRO IS "RESTRICTED MATERIALS OF IBM"          *@D31UDRP 01350000
*        5686-066 (C) COPYRIGHT IBM CORP. 1983, 1994          *@D31UDRP 01400061
*        SEE COPYRIGHT INSTRUCTIONS                           *@D31UDRP 01450000
.ZZZ     ANOP                                                 *         01500000
.**************************************************************         01550000
.**** START OF SPECIFICATIONS ***************************************** 01600000
.*                                                                      01650000
.*01* MODULE-TYPE = MACRO                                               01700000
.*                                                                      01750000
.*01* DESCRIPTIVE NAME = PAGE MANAGEMENT COMMUNICATION AREA             01800000
.*                                                                      01850000
.*  STATUS           =  NEW MACRO - FIRST RELEASE                       01900000
.*                      VSE/AF VERSION 2 RELEASE 1                      01950000
.*                                                                      02000000
.*  FUNCTION         =  SHOW LAYOUT OF PAGE MANAGEMENT COMM.AREA        02050000
.*  NOTES            =  NONE                                            02100000
.*  DEPENDENCIES     =  NONE                                            02150000
.*  RESTRICTIONS     =  NONE                                            02200000
.*  REGISTER CONVENT.=  NONE                                            02250000
.*  PATCH LABEL      =  NONE                                            02300000
.*  MACRO TYPE       =  ASSEMBLER                                       02350000
.*  PROCESSOR        =  ASM                                             02400000
.*  MACRO SIZE       =  SEE OUTPUT                                      02450000
.*  ATTRIBUTES       =  MAPPING DSECT OR DEFINED STORAGE AREA           02500000
.*  ENTRY POINT      =  PMCOM                                           02550000
.*  PURPOSE          =  SEE FUNCTION                                    02600000
.*  LINKAGE          =  SEE INPUT                                       02650000
.*  CALLER           =  SUPERVISOR AND IPL ROUTINES                     02700000
.*  INPUT            =  PMCOM                                           02750000
.*  OUTPUT           =  DSECT OF PMCOM OR DEFINED STORAGE AREA          02800000
.*                                                                      02850000
.*  EXIT NORMAL      =  MACRO EXPANSION                                 02900000
.*                                                                      02950000
.*  EXIT ERROR       =  NONE                                            03000000
.*                                                                      03050000
.*  EXTERNAL REFEREN.=  NONE                                            03100000
.*  ROUTINES         =  NONE                                            03150000
.*  DATA AREAS       =  NONE                                            03200000
.*  CONTROL BLOCKS   =  NONE                                            03250000
.*  TABLES           =  NONE                                            03300000
.*  MACROS           =  NONE                                            03350000
.*  CHANGE ACTIVITIES=  NEW MACRO   FIRST RELEASE AF 2.1       @DA33314 03400000
.*  MODIFIED REGISTER=  NONE                                            03450000
.*                                                                      03500000
.*  A000000-999999                                             @D14NDFG 03550000
.*  31-BIT REAL AND XA I/O SUPPORT                             @D51GDTP 03600000
.*  31-BIT VIRTUAL ENABLING                                    @D52VDRP 03625052
.*  REMOVE 370 AND VM STUFF                                    @D61NDRP 03637561
.*  FREE UP CONSOLE STORAGE                                    @D61CDRP 03643761
.*                                                                      03650000
.** END OF SPECICATIONS *********************************************** 03700000
.*                                                                      03750000
***************************************************************         03800000
*        PAGE MANAGEMENT COMMUNICATION AREA                   *         03850000
***************************************************************         03900000
         AIF   (NOT &IJBSGEN).DSECT                                     03950000
PMCOM    DS    0F                                              @D14KDVB 04000000
PMPGSIZE DC    F'&AGPSIZB'        PAGE SIZE IN BYTES           @D14KDVB 04050000
PMPAGMSK DC    F'-&AGPSIZB'       PATTERN FOR PAGE BOUNDARY    @D14KDVB 04100000
PMDISMSK DC    A(&AGPSIZB-1)      PATTERN FOR DISPLACEM.IN PAGE@D14KDVB 04150000
PMPTEMSK DC    F'&AGPGMSK'        PATTERN FOR PAGE NBR IN PTE  @D14KDVB 04200000
PMPNRMSK DC    X'00FFFFFF'        PATTERN FOR PAGE NBR IN PFTE @D52VDRP 04250052
PMADPN   DC    H'&AGPNSFT'        SHIFT AMOUNT ADDR TO PAGE#   @D14KDVB 04300000
PMADPFTO DC    AL2(PFSHIFT)       SHIFT AMOUNT ADDR TO PFT OFFS@D52VDRP 04350052
PMADPTO  DC    AL2(PTSHIFT)       SHIFT AMOUNT ADDR TO PT OFFSE@D52VDRP 04400052
DEVCBNUM DC    H'0'               NUMBER OF DEVICE CONTROL BLOCKS       04750000
PSQPTR   DC    A(PSQHEAD)         A(PAGE SELECTION QUEUE HEADER)        04800000
ARTAB    DC    A(0)               A(REENTRY-RATE TABLE)                 04850000
ARTABX   DC    A(0)               A(REENTRY-RATE TABLE)        @DA33314 04900000
LRTAB    DC    A(0)               LENGTH OF REENTRY-RATE TABLE          04950000
ADEVCB   DC    A(0)               A(PAGING DEVICE CONTROL BLOCKS)       05000000
         DC    F'0'               RESERVED (OLD PMMAXEPA)      @D52VDRP 05050052
         DC    H'0'               RESERVED                     @D51GDRP 05100000
PGQOMIN  DC    H'0'               MIN.AVAIL.PSEUDO-TIB'S FOR PAGE-OUT   05150000
PMADSN   DC    H'20'              SHIFT AMOUNT ADDR TO SEGM#   @D51GDTP 05450000
PMADSTO  DC    H'18'              SHIFT AMOUNT ADDR - ST OFFSET@D51GDTP 05500000
         DC    A(0)               RESERVED (OLD APTAS)         @D52VDRP 05600052
         DC    F'0'               RESERVED (OLD PTASG#)        @D52VDRP 05650052
         DC    A(0)               RESERVED (OLD APTR)          @D52VDRP 05700052
PMSGSIZE DC    F'&AGSGSIZ'        SEGMENT SIZE IN BYTES        @D14KDVB 05750000
PMSGMSK  DC    F'-&AGSGSIZ'       MASK FOR SEGMENT BOUNDARY    @D14KDVB 05800000
PMSGDIS  DC    A(&AGSGSIZ-1)      MASK FOR DISPLACEMENT IN SEGM@D14KDVB 05850000
PMPTOMSK DC    F'&AGOFMSK'        PAGE TABLE OFFSET MASK       @D14KDVB 05900000
PMINVSTE DC    X'0000002F'        PROTOTYPE FOR INVALID STE    @D51GDTP 06150000
PMCR1MSK DC    X'7FFFF000'        MASK TO GET SGT OUT OF CR1   @D52VDRP 06175052
PMSTEMSK DC    F'&AGSGMSK'        MASK FOR SEGMENT TABLE ENTRY @D14KDVB 06250000
PMIBIT   DC    H'&AGIBIT'                                      @D14KDVB 06300052
PMSTECOM DC    X'00'              COMMON SEGMENT MASK                   06350000
PMOPFLAG DC    X'00'              OPERATION FLAG               @D61CDRP 06400061
PMOPNPFX EQU   X'80'              SKIP PFIX-COUNTER UPDATE     @D61CDRP 06450061
PMINVPTE DC    AL3(&AGINVPT),AL1(0) INVALIDATION PATTN FOR PTE @D51GDTP 06750000
PMIPFQH  DC    A(IPFQHEAD)        A(INV. PAGE FRAME QUEUE HEAD)@D51GDRP 06850000
PMBLKMSK DC    F'-&AGBSIZB'       MASK FOR BLOCK BOUNDARY      @D51GDRP 06900000
PMBLKDIS DC    A(&AGBSIZB-1)      MASK FOR DISPL. IN BLOCK     @D51GDRP 06950000
.*   A BLOCK IS THE ALLOCATION UNIT, VIRTUAL STORAGE IS ALLOC. @D51GDRP 07000000
.*   ON PDS                                                    @D51GDRP 07050000
APDAS    DC    A(0)               A(PDS ALLOCATION STRING)     @D51GDRP 07100000
PDAS#    DC    F'0'               NUMBER OF PDAS ENTRIES       @D51GDRP 07150000
APTASG2  DC    A(PTASG2)          A(ALLOCATION RTN) FOR IPL    @D51GDRP 07200000
PMADBN   DC    H'&AGPNBLK'        SHIFT AMOUNT PAGE# TO BLOCK# @D51GDRP 07250000
PMBLPSEG DC    H'&AGBKPSG'        NUMBER OF BLOCKS PER SEGMENT @D51GDRP 07300000
MINPSQE  DC    A(MINPSQ)          MIN NOT FIXED PAGES          @D51GDRP 07350000
PMPSEG#  DC    F'0'               # OF SEGMENTS OF PRIVATE AREA@D52VDRP 07428452
PMSEG#   DC    F'0'               # OF SEGMENT IN ADDR SPACE   @D52VDRP 07471052
PMSGTSZ  DC    F'0'               SIZE OF SEGMENT TABLE (BYTES)@D52VDRP 07473852
PMPRPBEG DC    A(0)               BEGIN OF GETVIS AREA IN PMRAS@D52VDRP 07482252
PMPRPEND DC    A(0)               END OF GETVIS AREA IN PMRAS  @D52VDRP 07484452
PMPASZ   DC    F'0'               SIZE OF PMRAS PRIV. AREA IN K@D52VDRP 07486652
PMRSPREL DC    A(0)               RELOC. VALUE FOR REAL SPACE  @D52VDRP 07493352
         MEXIT                                                          07550000
.DSECT   AIF   (T'&NAME EQ 'O').NONAME                                  07600000
&NAME    DSECT                                                          07650000
         AGO   .NAMEEND                                                 07700000
.NONAME  ANOP                                                           07750000
PMCOM    DSECT                                                          07800000
.NAMEEND ANOP                                                           07850000
PMPGSIZE DS    F                  PAGE SIZE IN BYTES                    07900000
PMPAGMSK DS    F                  PATTERN FOR PAGE BOUNDARY    @D14KDVB 07950000
PMDISMSK DS    F                  PATTERN FOR DISPLACEM.IN PAGE@D14KDVB 08000000
PMPTEMSK DS    F                  PATTERN FOR PAGE NBR IN PTE  @D14KDVB 08050000
PMPNRMSK DS    F                  PATTERN FOR PAGE NBR IN PFTE @D14KDVB 08100000
PMADPN   DS    H                  SHIFT AMOUNT ADDR TO PAGE#   @D14KDVB 08150000
PMADPFTO DS    H                  SHIFT AMOUNT ADDR TO PFT OFFS@D14KDVB 08200000
PMADPTO  DS    H                  SHIFT AMOUNT ADDR TO PT OFFSE@D14KDVB 08250000
DEVCBNUM DS    H                  NUMBER OF DEVICE CONTROL BLOCKS       08350000
PSQPTR   DS    A                  A(PAGE SELECTION QUEUE HEADER)        08400000
ARTAB    DS    A                  A(REENTRY-RATE TABLE)                 08450000
ARTABX   DS    A                  A(REENTRY-RATE TABLE)        @DA33314 08500000
LRTAB    DS    A                  LENGTH OF REENTRY-RATE TABLE          08550000
ADEVCB   DS    A                  A(PAGING DEVICE CONTROL BLOCKS)       08600000
         DS    F                  RESERVED                     @D52VDRP 08650052
         DS    H                  RESERVED                     @D51GDRP 08700000
PGQOMIN  DS    H                  MIN.AVAIL.PSEUDO-TIB'S FOR PAGE-OUT   08750000
PMADSN   DS    H                  SHIFT AMOUNT ADDR TO SEGM#            08800000
PMADSTO  DS    H                  SHIFT AMOUNT ADDR TO ST OFFSET        08850000
         DS    A                  RESERVED                     @D52VDRP 08900052
         DS    F                  RESERVED                     @D52VDRP 08950052
         DS    F                  RESERVED                     @D52VDRP 09000052
PMSGSIZE DS    F                  SEGMENT SIZE IN BYTES        @D14KDVB 09050000
PMSGMSK  DS    F                  MASK FOR SEGMENT BOUNDARY    @D14KDVB 09100000
PMSGDIS  DS    F                  MASK FOR DISPLACEMENT IN SEGM@D14KDVB 09150000
PMPTOMSK DS    F                  PAGE TABLE OFFSET MASK       @D14KDVB 09200000
PMINVSTE DS    F                  PROTOYPE FOR INVALID STE     @D14KDVB 09250000
PMCR1MSK DS    F                  MASK TO GET SGT OUT OF CR1   @D52VDRP 09275052
PMSTEMSK DS    F                  MASK FOR SEGMENT TABLE ENTRY @D14KDVB 09300000
PMIBIT   DS    H                                                        09350052
PMSTECOM DS    X                  COMMON SEGMENT MASK                   09400000
PMOPFLAG DS    X                  OPERATION FLAG               @D61CDRP 09450061
PMOPNPFX EQU   X'80'              SKIP PFIX-COUNTER UPDATE     @D61CDRP 09500061
PMINVPTE DS    F                  INVALIDATION PATTERN FOR PTE @D61NDRP 09550061
PMIPFQH  DS    A                  A(INV. PAGE FRAME QUEUE HEAD)@D51GDRP 09650000
PMBLKMSK DS    F                  MASK FOR BLOCK BOUNDARY      @D51GDRP 09700000
PMBLKDIS DS    F                  MASK FOR DISPL. IN BLOCK     @D51GDRP 09750000
.*   A BLOCK IS THE ALLOCATION UNIT OF VIRTUAL STORAGE ALLOC.  @D51GDRP 09800000
.*   ON PDS                                                    @D51GDRP 09850000
APDAS    DS    A                  A(PDS ALLOCATION STRING)     @D51GDRP 09900000
PDAS#    DS    F                  NUMBER OF PDAS ENTRIES       @D51GDRP 09950000
APTASG2  DS    A                  A(ALLOCATION RTN) FOR IPL    @D51GDRP 10000000
PMADBN   DS    H                  SHIFT AMOUNT PAGE# TO BLOCK# @D51GDRP 10050000
PMBLPSEG DS    H                  NUMBER OF BLOCKS PER SEGMENT @D51GDRP 10100000
MINPSQE  DS    F                  MIN NOT FIXED PAGES          @D51GDRP 10150000
PMPSEG#  DS    F                  # OF SEGMENTS OF PRIVATE AREA@D52VDRP 10228452
PMSEG#   DS    F                  # OF SEGMENTS IN ADDR SPACE  @D52VDRP 10271052
PMSGTSZ  DS    F                  SIZE OF SEGMENT TABLE        @D52VDRP 10276852
PMPRPBEG DS    A                  BEGIN OF GETVIS AREA IN PMRAS@D52VDRP 10294252
PMPRPEND DS    A                  END OF GETVIS AREA IN PMRAS  @D52VDRP 10294952
PMPASZ   DS    F                  SIZE OF PMRAS PRIV. AREA IN K@D52VDRP 10295652
PMRSPREL DS    A                  RELOC. VALUE FOR REAL SPACE  @D52VDRP 10297852
         MEND                                                           10350000
* END OF PLS COMMENT */ %MPMCOM : ;                                     10400000
* DECLARE                                                               10450000
* 1  PMCOM     BASED,     /* PAGE MANAGEMENT COMM.AREA               */ 10500000
*  2 PMPGSIZE  FIXED(32), /* PAGE SIZE IN BYTES              @D14KDVB*/ 10550000
*  2 PMPAGMSK  FIXED(32), /* PATTERN FOR PAGE BOUNDARY       @D14KDVB*/ 10600000
*  2 PMDISMSK  FIXED(32), /* PATTERN FOR DISPLACEMENT IN PAGE@D14KDVB*/ 10650000
*  2 PMPTEMSK  FIXED(32), /* PATTERN FOR PAGE NUMBER IN PTE  @D14KDVB*/ 10700000
*  2 PMPNRMSK  FIXED(32), /* PATTERN FOR PAGE NUMBER IN PFTE @D14KDVB*/ 10750000
*  2 PMADPN    FIXED(16), /* SHIFT AMOUNT ADDR TO PAGE#      @D14KDVB*/ 10800000
*  2 PMADPFTO  FIXED(16), /* SHIFT AMOUNT ADDR TO PFT OFFSET @D14KDVB*/ 10850000
*  2 PMADPTO   FIXED(16), /* SHIFT AMOUNT ADDR TO PT OFFSET  @D14KDVB*/ 10900000
*  2 DEVCBNUM  FIXED(16), /* NUMBER OF DEVICE CONTROL BLOCKS         */ 11000000
*  2 PSQPTR    PTR(32),   /* A(PAGE SELECTION QUEUE HEADER)          */ 11050000
*  2 ARTAB     PTR(32),   /* A(REENTRY-RATE TABLE)                   */ 11100000
*  2 ARTABX    PTR(32),   /* A(REENTRY-RATE TABLE)           @DA33314*/ 11150000
*  2 LRTAB     PTR(32),   /* LENGTH OF REENTRY-RATE TABLE            */ 11200000
*  2 ADEVCB    PTR(32),   /* A(PAGING DEVICE CONTROL BLOCKS)         */ 11250000
*  2 *         FIXED(31), /* RESERVED                        @D52VDRP*/ 11300052
*  2 *         FIXED(16), /* RESERVED                        @D51GDRP*/ 11350000
*  2 PGQOMIN   FIXED(16), /* MIN.AVAIL.PSEUDO-TIB'S FOR PAGE-OUT     */ 11400000
*  2 PMADSN    FIXED(16), /* SHIFT AMOUNT ADDR TO SEGM#              */ 11450000
*  2 PMADSTO   FIXED(16), /* SHIFT AMOUNT ADDR TO ST OFFSET          */ 11500000
*  2 *         PTR(32),   /* RESERVED                        @D52VDRP*/ 11550052
*  2 *         FIXED(32), /* RESERVED                        @D52VDRP*/ 11600052
*  2 *         PTR(32),   /* RESERVED                        @D52VDRP*/ 11650052
*  2 PMSGSIZE  FIXED(32), /* SEGMENT SIZE IN BYTES           @D14KDVB*/ 11700000
*  2 PMSGMSK   FIXED(32), /* MASK FOR SEGMENT BOUNDARY       @D14KDVB*/ 11750000
*  2 PMSGDIS   FIXED(32), /* MASK FOR DISPLACEMENT IN SEGM   @D14KDVB*/ 11800000
*  2 PMPTOMSK  FIXED(32), /* PAGE TABLE OFFSET MASK          @D14KDVB*/ 11850000
*  2 PMINVSTE  FIXED(32), /* MASK FOR SEGMANT TABLE ENTRY    @D14KDVB*/ 11900000
*  2 PMCR1MSK  FIXED(32), /* MASK TO GET SGT OUT OF CR1      @D52VDRP*/ 11975052
*  2 PMSTEMSK  FIXED(32), /* PROTOTYPE FOR INVALID STE       @D14KDVB*/ 12000052
*  2 PMIBIT    FIXED(16), /* IBIT                            @D14KDVB*/ 12025052
*  2 PMSTECOM  BIN(8),    /* COMMON SEGMENT MASK             @DA33314*/ 12050000
*  2 PMOPFLAG  BIT(8),    /* OPERATION FLAG                  @D61CDRP*/ 12100061
*  2 PMINVPTE  FIXED(32), /* INVALIDATION PATTERN FOR PTE    @D61NDRP*/ 12150061
*  2 PMIPFQH   PTR(32)  , /* A(INV. PAGE FRAME QUEUE HEADER) @D51GDRP*/ 12350052
*  2 PMBLKMSK  FIXED(32), /* MASK FOR BLOCK BOUNDARY         @D51GDRP*/ 12400000
*  2 PMBLKDIS  FIXED(32), /* MASK FOR DISPL. IN BLOCK        @D51GDRP*/ 12450000
*  2 APDAS     PTR(32),   /* A(PDS ALLOCATION STRING)        @D51GDRP*/ 12500000
*  2 PDAS#     FIXED(32), /* NUMBER OF PDAS ENTRIES          @D51GDRP*/ 12550000
*  2 APTASG2   PTR(32),   /* A(ALLOCATION RTN) FOR IPL       @D51GDRP*/ 12600000
*  2 PMADBN    FIXED(16), /* SHIFT AMOUNT PAGE# TO BLOCK#    @D51GDRP*/ 12650000
*  2 PMBLPSEG  FIXED(16), /* NUMBER OF BLOCKS PER SEGMENT    @D51GDRP*/ 12700000
*  2 MINPSQE   FIXED(31), /* MIN NOT FIXED PAGES             @D51GDRP*/ 12750000
*  2 PMPSEG#   FIXED(31), /* # OF SEGMENTS OF PRIVATE AREA   @D52VDRP*/ 12828452
*  2 PMSEG#    FIXED(32), /* # OF SEGMENTS IN ADDR SPACE     @D52VDRP*/ 12871052
*  2 PMSGTSZ   FIXED(32), /* SIZE OF SEGMENT TABLE           @D52VDRP*/ 12876852
*  2 PMPRPBEG  PTR(32),   /* BEGIN OF GETVIS AREA IN PMRAS   @D52VDRP*/ 12890752
*  2 PMPRPEND  PTR(32),   /* END OF GETVIS AREA IN PMRAS     @D52VDRP*/ 12891852
*  2 PMPASZ    FIXED(32), /* SIZE OF PMRAS PRIV. AREA IN K   @D52VDRP*/ 12894552
*  2 PMRSPREL  PTR(32);   /* RELOC. VALUE FOR REAL SPACE     @D52VDRP*/ 12897252
*/*----- END OF PMCOM -----------------------------------------------*/ 12947261
