         MACRO                                                          00050000
&NAME    RLOCK &COND=                                                   00100000
.*                                                             @D14ZDWK 00150000
         LCLA  &FC                          FUNTION CODE       @D14ZDWK 00200000
.*                                                                      00250000
***************************************************************         00300000
*                                                             *@D51MDGL 00350000
.*       IBM VSE / ADVANCED FUNCTIONS                         *@D51MDGL 00400000
*        SUPERVISOR - RLOCK - 5686-007-06-C440                *@D31UDGN 00450000
.*                                                                      00500000
         AGO   .CPRIGHT                                                 00550000
.*                                                                      00600000
*        LICENSED MATERIALS - PROGRAM PROPERTY OF IBM         *@D51MDGL 00650000
*        THIS MACRO IS "RESTRICTED MATERIALS OF IBM"          *@D51MDGL 00700000
*        5686-007 (C) COPYRIGHT IBM CORP. 1979, 1989          *@D31UDGN 00750000
*        SEE COPYRIGHT INSTRUCTIONS                           *@D51MDGL 00800000
.*                                                                      00850000
.CPRIGHT ANOP                                                           00900000
*                                                             *@D51MDGL 00950000
***************************************************************         01000000
.*                                                                      01050000
.**** START OF SPECIFICATIONS ***************************************** 01100000
.*                                                                      01150000
.*01* MODULE-TYPE = MACRO                                               01200000
.*                                                                      01250000
.*01* DESCRIPTIVE NAME = OBTAIN ACCESS TO A SPECIFIED RESOURCE OR       01300000
.*                       WAIT FOR IT                                    01350000
.*                                                                      01400000
.*  STATUS           =  NEW MACRO - FIRST RELEASE 1.3                   01450000
.*  FUNCTION         =  THE MACRO CHECKS THE USER SUPPLIED              01500000
.*                      COND-OPERAND AND SETS THE CORRESPONDING         01550000
.*                      FUNCTION CODE FOR SVC107.                       01600000
.*  NOTES            =                                                  01650000
.*  DEPENDENCIES     =                                                  01700000
.*  RESTRICTIONS     =                                                  01750000
.*  REGISTER CONVENT.=  REGISTER 15 CONTAINS THE FUNCTION CODE          01800000
.*  PATCH LABEL      =  NONE                                            01850000
.*  MACRO TYPE       =  ASSEMBLER                                       01900000
.*  PROCESSOR        =  ASM                                             01950000
.*  MACRO SIZE       =                                                  02000000
.*  ATTRIBUTES       =                                                  02050000
.*  ENTRY POINT      =  RLOCK                                           02100000
.*  PURPOSE          =  SEE FUNCTION                                    02150000
.*  LINKAGE          =                                                  02200000
.*  CALLER           =                                                  02250000
.*  INPUT            =   (CALLING SEQUENCE)                             02300000
.*    1. ASM :                                                          02350000
.*        LABEL   RLOCK  COND= CRTSAV | HCFCB | ALLOCR | RSGT  @D149DFG 02400000
.*                  DEFAULT:  NONE                                      02450000
.*                                                                      02500000
.*                      OPERANDS :                                      02550000
.*                      COND = CRTSAV  (FC X'37')                       02600000
.*                             INDICATES THAT THE CRT WORK AREA HAS     02650000
.*                             TO BE ACCESSED.                          02700000
.*                      COND = HCFCB   (FC X'38')                       02750000
.*                             INDICATES THAT THE HARD COPY FILE        02800000
.*                             CONTROL BLOCK HAS TO BE ACCESSED.        02850000
.*                      COND = ALLOCR  (FC X'5D')              @D149DFG 02900000
.*                             ACCESS TO INFORMATION RELATED   @D149DFG 02950000
.*                             TO THE SYSTEM 'REAL PARTITION'  @D149DFG 03000000
.*                      COND = RSGT    (FC X'5E')              @D149DFG 03050000
.*                             ACCESS TO THE SEGMENT TABLE     @D149DFG 03100000
.*                             OF THE R SPACE (370 MODE ONLY)  @D149DFG 03150000
.*                                                                      03200000
.*  OUTPUT(ASSEMBLER)= NECESSARY INSTRUCTIONS TO LOAD                   03250000
.*                                                                      03300000
.*           REGISTER 15 : COND = NN      X'000000XX'                   03350000
.*                                                                      03400000
.*           ERR. : MNOTE WITH RC 5 IF COND INVALID                     03450000
.*                                                                      03500000
.*  MACROS GENERATING SVC 107 :                                @D149DWK 03550000
.*         GETFLD,   MODFLD,   TREADY,   TSTOP,   RLOCK,       @D149DWK 03600000
.*         SRCHFLD,  DEVUSE,   DEVREL,   SENTER,  SLEAVE,      @D149DWK 03650000
.*         VIOPOINT                                            @D149DWK 03700000
.*                                                                      03750000
.* ====> CHECK SUPERVISOR GENERATION MACRO SGTINF FOR HIGHEST  @D149DWK 03800000
.* ====> USED FUNCTION CODE WHEN EXTENDING RLOCK               @D149DWK 03850000
.*                                                                      03900000
.*  OUTPUT(EXECUTION)=  TASK OR PARTITION CHANGED TO                    03950000
.*                      REQUESTED STATUS.                               04000000
.*                                                                      04050000
.*  EXIT NORMAL      =  COMPILER :                                      04100000
.*                      MACRO EXPANSION                                 04150000
.*                      EXECUTION:                                      04200000
.*                      CONTROL RETURNED TO USER                        04250000
.*                                                                      04300000
.*  EXIT ERROR       =  COMPILER :                                      04350000
.*                      MNOTES INDICATING THE ERROR                     04400000
.*                      EXECUTION:                                      04450000
.*                      ILLEGAL SVC FORCED, NO RETURN CODE SET          04500000
.*                                                                      04550000
.*                                                                      04600000
.*  EXTERNAL REFEREN.=  NONE                                            04650000
.*  ROUTINES         =  SVC 107 (SUPERVISOR GENERATION MACRO SGTINF)    04700000
.*  DATA AREAS       =  NONE                                            04750000
.*  CONTROL BLOCKS   =  NONE                                            04800000
.*  TABLES           =  NONE                                            04850000
.*  MACROS           =  NONE                                            04900000
.*  CHANGE ACTIVITIES=  NEW MACRO   FIRST RELEASE 1.3                   04950000
.*  CHANGE 01        :  RELEASE 2.1 EXTENSION (COMMENTS)       @D149DWK 05000000
.*  MODIFIED REGISTER=  REGISTER 15                                     05050000
.*                                                                      05100000
.*  A000000-999999                                             @D37DDVB 05150000
.*                                                                      05200000
.** END OF SPECICATIONS *********************************************** 05250000
.*                                                                      05300000
         AIF   (T'&COND  EQ 'O').ERR1                                   05350000
&NAME    DS    0H                                                       05400000
         AIF   ('&COND' NE 'HCFCB').CHCRT                      @D14ZDWK 05450000
&FC      SETA  56                             INDICATE HCFCB   @D14ZDWK 05500000
         AGO   .GENBAL                                                  05550000
.CHCRT   AIF   ('&COND' NE 'CRTSAV').CHALOC                    @D14NDFG 05600000
&FC      SETA  55                             INDICATE CRTSAV  @D14ZDWK 05650000
         AGO   .GENBAL                                         @D14NDFG 05700000
.CHALOC  AIF   ('&COND' NE 'ALLOCR').CHRSGT                    @D14NDFG 05750000
&FC      SETA  93                             INDICATE ALLOCR  @D14ZDWK 05800000
         AGO   .GENBAL                                         @D14NDFG 05850000
.CHRSGT  AIF   ('&COND' NE 'RSGT').ERR2                        @D14NDFG 05900000
&FC      SETA  94                             INDICATE RSGT    @D14ZDWK 05950000
.GENBAL  ANOP                                                           06000000
         LA    15,&FC.(,0)        SET FUNTION CODE             @D14ZDWK 06050000
         SVC   107                RESOURCE LOCK SERVICE                 06100000
         MEXIT                                                          06150000
.ERR1    MNOTE 8,'NO PARAMETER SPECIFIED  IN  RLOCK  MACRO INSTRUCTION,*06200000
               GENERATION TERMINATED'                                   06250000
         MEXIT                                                          06300000
.ERR2    MNOTE 8,'INVALID PARAMETER IN RLOCK  MACRO INSTRUCTION,GENERAT*06350000
               ATION TERMINATED'                                        06400000
         MEND                                                           06450000
