*%GOTO  MSCBATAB; /*PLS COMMENT TO AVOID UNMATCHED QUOTE PROBLEMS       00050000
         MACRO                                                          00100000
&NAME    SCBATAB                                                        00150000
.*       IBM DISK OPERATING SYSTEM                            *         00200000
*        SUPERVISOR - SCBATAB - 5686-032-06                   @D51IDMZ  00250000
         GBLB  &IJBSGEN                                                 00300000
         GBLB  &BG370                                                   00350000
         GBLB  &BGVM                                                    00400000
         AGO   .ZZZ                                           *         00450000
*        LICENSED MATERIALS - PROPERTY OF IBM                 *         00500000
*        THIS MACRO IS "RESTRICTED MATERIALS OF IBM"          *@D31UDMZ 00550000
*        5686-032 (C) COPYRIGHT IBM CORP. 1984, 1995          *@D61NDMZ 00600053
*        SEE COPYRIGHT INSTRUCTIONS                           *@D31UDMZ 00650000
.ZZZ     ANOP                                                 *         00700000
         AIF   (NOT &IJBSGEN).DSECT                                     00750000
SCBATAB  DS    0F                                                       00800000
         AIF   (&BGVM).ASNOFPT    NOT SET IN MODE=VM           @D52VDMZ 00937552
ASCBQB   DS    0F                                              @D52VDMZ 01002752
ASCBFSTA DC    A(SCBS)            PTR TO SCB OF FIRST STATIC SP@D61NDMZ 01005453
ASCBFDYN DC    A(0)               PTR TO SCB OF FIRST DYN. SPCE@D52VDMZ 01008252
ASCBFPMR DC    A(SCBP1)           PTR TO SCB OF FIRST PMR SPACE@D52VDMZ 01010952
SCBCHNUM EQU   (*-ASCBQB)/4       NO OF SCB QUEUES             @D52VDMZ 01013652
         AGO   .ASCBTC                                         @D52VDMZ 01016452
.ASNOFPT ANOP                                                  @D52VDMZ 01020552
ASCBQB   DS    0F                                              @D52VDMZ 01031452
ASCBFSTA DC    A(0)               PTR TO SCB OF FIRST STATIC SP@D52VDMZ 01034152
ASCBFDYN DC    A(0)               PTR TO SCB OF FIRST DYN. SPCE@D52VDMZ 01036952
ASCBFPMR DC    A(0)               PTR TO SCB OF FIRST PMR SPACE@D52VDMZ 01039652
SCBCHNUM EQU   (*-ASCBQB)/4       NO OF SCB QUEUES             @D52VDMZ 01042352
.ASCBTC  ANOP                                                  @D52VDMZ 01045152
SCBATABP DS    0F                 SCB POINTERS                 @D51IDMZ 01050000
ASCBR    DC    A(SCBR)            SCB POINTER OF REAL SPACE             01100000
ASCB0    DC    A(SCB0)            SCB POINTER OF SPACE 0       @D52VDMZ 01150052
         AIF   (&BGVM).ENDSCB                                           01200000
         DC    A(SCB1)            SCB POINTER OF SPACE 1                01225052
         DC    A(SCB2)            SCB POINTER OF SPACE 2                01250000
         DC    A(SCB3)            SCB POINTER TO SPACE 3       @D218DKH 01300052
         DC    A(SCB4)            SCB POINTER TO SPACE 4       @D218DKH 01350000
         DC    A(SCB5)            SCB POINTER TO SPACE 5       @D218DKH 01400000
         DC    A(SCB6)            SCB POINTER TO SPACE 6       @D218DKH 01450000
         DC    A(SCB7)            SCB POINTER TO SPACE 7       @D218DKH 01500000
         DC    A(SCB8)            SCB POINTER TO SPACE 8       @D218DKH 01550000
         DC    A(SCB9)            SCB POINTER TO SPACE 9       @D52VDMZ 01575052
         DC    A(SCBA)            SCB POINTER TO SPACE A       @D52VDMZ 01600052
         DC    A(SCBB)            SCB POINTER TO SPACE B       @D52VDMZ 01625052
ASCBS    DC    A(SCBS)            SCB POINTER OF SHARED SPACE           01650000
.ENDSCB  ANOP                                                           01700000
SCBATABL EQU   *-SCBATAB          LENGTH OF STATIC SCBATAB     @D51IDMZ 01750000
         AIF   (&BGVM).NASCBFD    NOT SET IN MODE=VM           @D52VDMZ 01775052
ASCBFDP  DS    0F                 SCB PTR OF FIRST DYNAMIC SPACE, MAY  *01800000
                                  NOT BE AVAILABLE             @D51IDMZ 01850000
.NASCBFD ANOP                                                  @D52VDMZ 01875052
         MEXIT                                                          01900000
.DSECT   ANOP                                                           01950000
* * * * * * * * * * * * * * * * * * * * * * * * * * * * * * * * * * * * 02000000
*        SPACE CONTROL BLOCK ADDRESS TABLE                            * 02050000
* * * * * * * * * * * * * * * * * * * * * * * * * * * * * * * * * * * * 02100000
         SPACE 1                                                        02150000
         AIF   (T'&NAME EQ 'O').NONAME                                  02200000
&NAME    DSECT                                                          02250000
         AGO   .NAME                                                    02300000
.NONAME  ANOP                                                           02350000
SCBATAB  DSECT                                                          02400000
.NAME    ANOP                                                           02450000
ASCBQB   DS    0F                                              @D52VDMZ 02550052
ASCBFSTA DS    F                  PTR TO SCB OF FIRST STATIC SP@D52VDMZ 02662552
ASCBFDYN DS    F                  PTR TO SCB OF FIRST DYN. SPA.@D52VDMZ 02675052
ASCBFPMR DS    F                  PTR TO SCB OF FIRST PMR SPACE@D52VDMZ 02687552
SCBATABP DS    0F                 SCB POINTERS                 @D51IDMZ 02700000
ASCBR    DS    F                  SCB POINTER FOR REAL SPACE            02750000
ASCB0    DS    F                  SCB POINTER FOR SPACE 0               02800052
         DS    11F                SCB POINTERS FOR SPACES 1-B  @D52VDMZ 02850052
ASCBS    DS    F                  SCB POINTER FOR SHARED SPACE          02900000
SCBSTAT# EQU   (*-ASCB0)/4        NO OF STATIC SPACES          @D52VDMZ 02904152
ASCBFDP  DS    F                  SCB PTR TO FIRST DYNAMIC SPACE...     03000000
*                                 ... MAY NOT BE AVAILABLE     @D51IDMZ 03050000
         MEND                                                           03100000
* END OF PLS COMMENT */ %MSCBATAB : ;                                   03150000
* DECLARE                                                               03200000
* 1  SCBATAB   BASED,     /* MAP OF SPACE CONTROL BLOCK ADDR. TABLE  */ 03250000
*  2 ASCBQB,              /* BEGIN OF QUEUES                 @D52VDMZ*/ 03300052
*   3 ASCBFSTA PTR(31),   /* PTR TO SCB OF FIRST STATIC SPACE@D52VDMZ*/ 03340052
*   3 ASCBFDYN PTR(31),   /* PTR TO SCB OF FIRST DYN. SPACE  @D52VDMZ*/ 03380052
*   3 ASCBFPMR PTR(31),   /* PTR TO SCB OF FIRST PMR SPACE   @D52VDMZ*/ 03460052
*  2 SCBATABP,            /* SCB POINTERS                    @D51IDMZ*/ 03500000
*   3 ASCBR    PTR(31),   /* SCB POINTER FOR REAL SPACE              */ 03550000
*   3 ASCB0    PTR(31),   /* SCB POINTER FOR SPACE 0         @D52VDMZ*/ 03600052
*   3 *(11),              /* SCB POINTERS FOR SPACES 1-B     @D52VDMZ*/ 03650052
*    4 *       CHAR(4),   /* SCB POINTERS FOR SPACES 1-B     @D52VDMZ*/ 03700052
*   3 ASCBS    PTR(31),   /* SCB POINTER FOR SHARED SPACE            */ 03750000
*   3 ASCBFDP  PTR(31);   /* SCB PTR TO FIRST DYNAMIC SPACE. MAY NOT    03800000
*                            BY AVAILABLE.                   @D51IDMZ*/ 03850000
