*%GOTO MSCYVECT; /* BILINGUAL MAPPING                                   00010019
         MACRO                                                          00020019
&NAME    SCYVECTB &DSECT=YES                                            00030019
         GBLB  &IJBSGEN        DSECT=NO ONLY DURING SUPVR GEN           00040019
         AGO      .INCBPP                                               00050019
**************************************************************          00060019
*                                                            *          00070019
*        THIS MACRO IS "RESTRICTED MATERIALS OF IBM"         *          00080019
*        5686-066 (C) COPYRIGHT IBM CORP 1979,2001   @D66CDHH*          00090020
*        ALL RIGHTS RESERVED                                 *          00100019
*        LICENSED MATERIALS - PROPERTY OF IBM                *          00110019
.*       SEE COPYRIGHT INSTRUCTIONS, G120-2083               *          00120019
*                                                            *          00130019
**************************************************************          00140019
.INCBPP  ANOP                                                           00150019
.**************************************************************         00160019
.*                                                            *         00170019
.*      IBM DISK OPERATING SYSTEM                             *         00180019
*       SUPERVISOR - SCYVECTB - 5686-066-06-45C               *         00190019
.*                                                            *         00200019
.*    MACRO NAME = SCYVECTB                                   *         00210019
.*                                                            *         00220019
.*    DESCRIPTIVE NAME = SECURITY VECTOR TABLE                *         00230019
.*                                                            *         00240019
.*    FUNCTION = THE SECURITY VECTOR TABLE SERVES AS COM-     *         00250019
.*      MUNICATION AREA BETWEEN THE DIFFERENT SECURITY        *         00260019
.*      ROUTINES, THE LOGGING TASK AND THE SUPERVISOR         *         00270019
.*                                                            *         00280019
.*      THE MACRO ALLOWS TO GENERATE THE SECURITY VECTOR      *         00290019
.*      TABLE OR OPTIONALLY ITS DESECT.                       *         00300019
.*                                                            *         00310019
.*      CONTENTS:                                             *         00320019
.*      FILLED IN BY IPL                                      *         00330019
.*       ENTRY POINT ADDRESSES OF THE DIFFERENT SECURITY      *         00340019
.*       ROUTINES LOADED BY IPL                               *         00350019
.*       OR SAF INITIALIZATION                        @D64CDHH*         00360019
.*       OR BSSDCERT SERVICE                          @D66CDHH*         00380021
.*       OR IJBHC... - H/W CRYPTO SUPPORT             @D67CDHH*         00381022
.*      (OR TCP/IP SECURITY EXIT) OBSOLETE SEE DY45995@D67VDHH*         00382024
.*                                                            *         00390019
.**************************************************************         00400019
         AIF   (&IJBSGEN).SUPVRGN                                       00410019
         AIF   ('&DSECT' NE 'NO').DSECT                                 00420019
 MNOTE 8,'TABLE GENERATION ONLY FOR SUPVR GENERATION.DSECT=YES ASSUMED' 00430019
         AGO   .DSECT                                                   00440019
.SUPVRGN ANOP                                                           00450019
         AIF   ('&DSECT' NE 'YES').NODSECT                              00460019
.*       DSECT GENERATION                                               00470019
.DSECT   AIF   (T'&NAME EQ 'O').NONAME                                  00480019
&NAME    DSECT ,                       SECURITY VECTOR TABLE            00490019
         AGO   .NAME                                                    00500019
.NONAME  ANOP                                                           00510019
SCYVECDS DSECT ,              SECURITY VECTOR TABLE                     00520019
.NAME    ANOP                                                           00530019
SCYSCAPP DS    F              ADDR OF OF OPEN APPENDAGE ROUTINE         00540019
*                                                                       00550019
SCYSCSVC DS    F              ADDR OF SVC-APPENDAGE ROUTINE             00560019
*                             (AUTHORIZATION CHECKER)                   00570019
SCYSCJCL DS    F              ADDR OF JCL-LOGON LINKAGE                 00580019
*                                                                       00590019
SCYSECTB DS    F              ADDR OF SECURITY RESOURCE TABLE           00600019
SCYSVAUP EQU   X'80'          ACF TAB LOADED IN SVA BY         @D14CDOW 00610019
*                             SYSTEM ADMINISTRATOR                      00620019
*                                                                       00630019
SCYLOGGR DS    F              ADDR OF LOGGER MODULE DSPLLOG    @D14CDOW 00640019
*                                                                       00650019
SCYRCFA  DS    F              ROOT PHASE                       @D51SMPP 00660019
*                                                                       00670019
SCYESMPN DS    2F             ESM: PHASE NAME FROM SYS ESM=    @D64CDHH 00680019
*                                                                       00690019
         ORG   SCYESMPN       OVERLOADED BY BSM INITIALIZATION @D64CDHH 00700019
*                                                                       00710019
SCYSECXT DS    F              BSM: ADDRESS OF CICS TRANSACTION @D64CDHH 00720019
*                                RESOURCE TABLE                @D64CDHH 00730019
SCYSECXL DS    F              BSM: LENGTH OF CICS TRANSACTION  @D64CDHH 00740019
*                                RESOURCE TABLE                @D64CDHH 00750019
         ORG   ,                                               @D64CDHH 00760019
*                                                                       00770019
SCYDACEE DS    F              ADDRESS OF DEFAULT ACEE          @D64CDHH 00780019
SCYSRVPA DS    2C             SECURITY SERVER PARTITION        @D64CDHH 00790019
*                                                                       00800019
SCYFLGS1 DS    X              SECURITY FLAGS                   @D64CDHH 00810019
SCYESM   EQU   X'80'          EXTERNAL SECURITY MANAGER ACTIVE @D64CDHH 00820019
SCYSMINI EQU   X'40'          SECURITY MANAGER INIT. STARTED   @D64CDHH 00830019
SCYRCVR  EQU   X'20'          SEC=RECOVER SPECIFIED            @D64CDHH 00840019
SCYESMS  EQU   X'10'          ESM=... SPECIFIED                @D64CDHH 00850019
SCYBSM   EQU   X'08'          BASIC SECURITY MANAGER ACTIVE    @D64CDHH 00860019
SCYNOSAF EQU   X'04'          SAF INITIALIZATION FAILED        @D64CDHH 00870019
SCYNOSM  EQU   X'02'          SECURITY MGR. INIT. FAILED       @D64CDHH 00880019
SCYSRVRQ EQU   X'01'          SECURITY SERVER REQUESTED        @D64CDHH 00890019
*                                                                       00900019
         DS    X              RESERVED                         @D64CDHH 00910019
*                                                                       00920019
SCYCLEAN DS    F              ADDRESS OF ACEE CLEANUP ROUTINE  @D64CDHH 00930019
*                                                                       00940019
SCYSECRT DS    F              BSM: ADDRESS OF EXTENTED TABLE   @D64CDHH 00950019
         ORG   SCYSECRT       CLEARED BY ESM INITIALIZATION    @D64CDHH 00960019
SCYSVCLN DS    F              ESM: SIZE OF STORAGE FOR DTSECSVC@D64CDHH 00970019
         ORG   ,                 CLEARED BY ESM INITIALIZATION @D64CDHH 00980019
*                                                                       00990019
SCYSECRL DS    F              BSM: LENGTH OF EXTENDED TABLE    @D64CDHH 01000019
         ORG   SCYSECRL                                        @D64CDHH 01010019
SCYSVCOF DS    2C             ESM: DTSECSVC ENTRYPOINT OFFSET  @D64CDHH 01020019
         DS    2C             ESM: RESERVED                    @D64CDHH 01030019
         ORG   ,                                               @D64CDHH 01040019
*                                                                       01050019
SCYSECRS DS    F              BSM: TIME STAMP OF LAST LOAD OF  @D64CDHH 01060019
*                                THE EXTENDED TABLE            @D64CDHH 01070019
*                                                              @D65GDHH 01080019
SCYKMINF DS    F              ADDR. OF CPACF INFO BLOCK        @D68VDJS 01090025
*                                                              @D65GDHH 01100019
SCYCERTU DS    F              ADDRESS OF ACTIVE CERTIFICATE -  @D66CDHH 01110020
*                                USERID TABLE                  @D66CDHH 01120020
SCYHCINF DS    F              ADDRESS OF H/W CRYPTOGRAPHIC     @D67CDHH 01130022
*                                INFORMATION BLOCK             @D67CDHH 01140022
         DS    4F             RESERVED                         @D66CDHH 01150021
         MEXIT                                                          01160021
.*       TABLE  GENERATION                                              01170021
.NODSECT ANOP                                                           01180021
SCYVECTB DS    0F                      SECURITY VECTOR TABLE            01190019
         DC    9F'0'                                           @D64CDHH 01200019
         DC    CL2'FB'        DEFAULT IS PARTITION FB          @D64CDHH 01210019
         DC    XL2'00'                                         @D64CDHH 01220019
         DC    11F'0'                                          @D66CDHH 01230021
         MEND  ,  */                                           @D61CDFG 01240019
*                                                                       01250019
* %MSCYVECT:;                 /*                             @D61CDFG*/ 01260019
* DECLARE                     /*                             @D61CDFG*/ 01270019
* 1 SCYVECDS  BASED  BDY(WORD), /* SECURITY VECTOR TABLE     @D61CDFG*/ 01280019
*   2 SCYSCAPP  PTR(31),      /* ADDR OF OPEN APPENDAGE      @D61CDFG*/ 01290019
*   2 SCYSCSVC  PTR(31),      /* ADDR OF SVC-APPENDAGE       @D61CDFG*/ 01300019
*   2 SCYSCJCL  PTR(31),      /* ADDR OF JCL-LOGON LINKAGE   @D61CDFG*/ 01310019
*   2 SCYSECTB  PTR(31),      /* ADDR OF SEC RESOURCE TABLE  @D61CDFG*/ 01320019
*     3 SCYSVAUP BIT(1),      /* ADDR OF SEC RESOURCE TABLE  @D61CDFG*/ 01330019
*   2 SCYLOGGR  PTR(31),      /* ADDR OF LOGGER MODULE       @D61CDFG*/ 01340019
*   2 SCYRCFA   PTR(31),      /* ROOT PHASE                  @D61CDFG*/ 01350019
*   2 SCYESMPN  CHAR(8)       /* ESM: PHASE NAME FROM ESM=   @D64CDHH*/ 01360019
*                 BDY(WORD),  /* OVERLOADED BY BSM INIT.     @D64CDHH*/ 01370019
*     3 SCYSECXT  PTR(31),    /* BSM: ADDR OF TRANSACTION TAB@D64CDHH*/ 01380019
*     3 SCYSECXL  FIXED(31),  /* BSM: LENGTH  TRANSACTION TAB@D64CDHH*/ 01390019
*   2 SCYDACEE  PTR(31),      /* ADDRESS OF DEFAULT ACEE     @D64CDHH*/ 01400019
*   2 SCYMISC   CHAR(4)       /* MISCELLANEOUS INFORMATION   @D64CDHH*/ 01410019
*                 BDY(WORD),  /* USED BY BSM AND ESM         @D64CDHH*/ 01420019
*     3 SCYSRVPA  CHAR(2),    /* SEC. SERVER PARTITION       @D64CDHH*/ 01430019
*       4 SCYSRV1 FIXED(8),   /*  PARTITION ID PART 1        @D64CDHH*/ 01440019
*       4 SCYSRV2 FIXED(8),   /*  PARTITION ID PART 2        @D64CDHH*/ 01450019
*     3 SCYFLGS1  BIT(8),     /* SECURITY FLAGS              @D64CDHH*/ 01460019
*       4 SCYESM   BIT(1),    /* ESM ACTIVE                  @D64CDHH*/ 01470019
*       4 SCYSMINI BIT(1),    /* SECURITY MANAGER INIT.START.@D64CDHH*/ 01480019
*       4 SCYRCVR  BIT(1),    /* SEC=RECOVER SPECIFIED       @D64CDHH*/ 01490019
*       4 SCYESMS  BIT(1),    /* ESM=... SPECIFIED           @D64CDHH*/ 01500019
*       4 SCYBSM   BIT(1),    /* BSM ACTIVE                  @D64CDHH*/ 01510019
*       4 SCYNOSAF BIT(1),    /* SAF INITIALIZATION FAILED   @D64CDHH*/ 01520019
*       4 SCYNOSM  BIT(1),    /* SECURITY MGR. INIT. FAILED  @D64CDHH*/ 01530019
*       4 SCYSRVRQ BIT(1),    /* SECURITY SERVER REQUESTED   @D64CDHH*/ 01540019
*     3 *         CHAR(1),    /* RESERVED                    @D64CDHH*/ 01550019
*   2 SCYCLEAN  PTR(31),      /* ADDR OF ACEE CLEANUP ROUT.  @D64CDHH*/ 01560019
*   2 SCYSECRT  PTR(31),      /* BSM: ADDRESS OF EXT TABLE   @D64CDHH*/ 01570019
*     3 SCYSVCLN  FIXED(31),  /* ESM: STORAGE SIZE DTSECSVC  @D64CDHH*/ 01580019
*   2 SCYSECRL  FIXED(31),    /* BSM: LENGTHS OF EXT TABLE   @D64CDHH*/ 01590019
*     3 SCYSVCOF  FIXED(16),  /* ESM: DTSECSVC ENTRY OFFSET  @D64CDHH*/ 01600019
*     3 *         CHAR(2),    /* ESM: RESERVED               @D64CDHH*/ 01610019
*   2 SCYSECRS  FIXED(31),    /* BSM: LOAD TIME STAMP EXT.   @D64CDHH*/ 01620019
*   2 SCYKMINF  PTR(31),      /* ADDR OF CPACF INFO BLOCK    @D68VDJS*/ 01630025
*   2 SCYCERTU  PTR(31),      /* ADDR OF ACTIVE CERT-UID TAB @D66CDHH*/ 01640020
*   2 SCYHCINF  PTR(31),      /* ADDR OF H/W CRYPTO INFO     @D67CDHH*/ 01650022
*   2 *         CHAR(16)      /* RESERVED                    @D66CDHH*/ 01660021
*                 BDY(WORD);  /*                             @D64CDHH*/ 01670021
