*% GOTO ENTERPLS ;  /*   PL/S COMMENT COVERING ASSEMBLER CODE           00050000
      MACRO                                                             00100000
&NAME    SENTER &MODULE                                                 00150000
.*                                                                      00200000
         LCLA  &FC                            FUNCTION CODE             00250000
.*                                                                      00300000
***************************************************************         00350000
*                                                             *@D51MDGL 00400000
.*       IBM VSE / ADVANCED FUNCTIONS                         *@D51MDGL 00450000
*        SUPERVISOR - SENTER - 5686-007-06-C440               *@D31UDGN 00500000
.*                                                                      00550000
         AGO   .CPRIGHT                                                 00600000
.*                                                                      00650000
*        LICENSED MATERIALS - PROGRAM PROPERTY OF IBM         *@D51MDGL 00700000
*        THIS MACRO IS "RESTRICTED MATERIALS OF IBM"          *@D51MDGL 00750000
*        5686-007 (C) COPYRIGHT IBM CORP. 1979, 1989          *@D31UDGN 00800000
*        SEE COPYRIGHT INSTRUCTIONS                           *@D51MDGL 00850000
.*                                                                      00900000
.CPRIGHT ANOP                                                           00950000
*                                                             *@D51MDGL 01000000
***************************************************************         01050000
.*                                                                      01100000
.**** START OF SPECIFICATIONS ***************************************** 01150000
.*                                                                      01200000
.*01* MODULE-TYPE = MACRO                                               01250000
.*                                                                      01300000
.*01* DESCRIPTIVE NAME = PASS CONTROL TO PREDEFINED SVA PHASE           01350000
.*                                                                      01400000
.*  STATUS           =  NEW MACRO - FIRST RELEASE 2.1                   01450000
.*  FUNCTION         =  THE MACRO CHECKS THE USER SUPPLIED              01500000
.*                      OPERANDS AND SETS THE CORRESPONDING             01550000
.*                      FUNCTION CODE FOR SVC107.                       01600000
.*  NOTES            =  NONE                                            01650000
.*  DEPENDENCIES     =  NONE                                            01700000
.*  RESTRICTIONS     =  NONE                                            01750000
.*  REGISTER CONVENT.=  REGISTER 15 CONTAINS THE FUNCTION CODE          01800000
.*                      REGISTER 14 CONTAINS ADDRESS FOLLOWING          01850000
.*                                  THE SVC 107                         01900000
.*  PATCH LABEL      =  NONE                                            01950000
.*  MACRO TYPE       =  BILINGUAL                                       02000000
.*  PROCESSOR        =  ASM/PLS                                         02050000
.*  MACRO SIZE       =                                                  02100000
.*  ATTRIBUTES       =  NONE                                            02150000
.*  ENTRY POINT      =  SENTER                                          02200000
.*  PURPOSE          =  SEE FUNCTION                                    02250000
.*  LINKAGE          =  SEE INPUT                                       02300000
.*  CALLER           =                                                  02350000
.*  INPUT            =                                                  02400000
.*                                                                      02450000
.*  CALLING SEQUENCE  ASSEMBLER :                                       02500000
.*                                                                      02550000
.*        LABEL   SENTER  NAME1                                         02600000
.*                                                                      02650000
.*  CALLING SEQUENCE  PLS :                                             02700000
.*                                                                      02750000
.*      ? LABEL:  SENTER  (NAME1);                                      02800000
.*                                                                      02850000
.*                      FOLLOWING CHARACTER STRINGS ARE VALID FOR       02900000
.*                      NAME1 :                                         02950000
.*                      LIBR  : PHASE TO BE GIVEN CONTROL : XXXXXXXX    03000000
.*                                                                      03050000
.*  OUTPUT(ASSEMBLER)= NECESSARY INSTRUCTIONS TO LOAD                   03100000
.*                     REGISTER 15 AND TO GENERATE SVC 107              03150000
.*                                                                      03200000
.*                     FUNCTIONCODES USED FOR SENTER (HEX)              03250000
.*                         LIBR     :   46                              03300000
.*                                                                      03350000
.*  MACROS GENERATING SVC 107 :                                         03400000
.*         GETFLD,  MODFLD,   TREADY,   TSTOP,   RLOCK,                 03450000
.*         SRCHFLD, DEVUSE,   DEVREL,   SENTER,  SLEAVE,                03500000
.*         VIOPOINT                                                     03550000
.*                                                                      03600000
.*   ====> CHECK SUPERVISOR GENERATION MACRO SGTINF FOR HIGHEST         03650000
.*   ====> USED FUNCTION CODE WHEN EXTENDING SENTER.                    03700000
.*                                                                      03750000
.*  OUTPUT(EXECUTION)=  RETURN ADDRESS IN REGISTER 14                   03800000
.*                                                                      03850000
.*  EXIT NORMAL      =  COMPILER :                                      03900000
.*                      MACRO EXPANSION                                 03950000
.*                      EXECUTION:                                      04000000
.*                      CONTROL RETURNED TO USER                        04050000
.*                                                                      04100000
.*  EXIT ERROR       =  COMPILER :                                      04150000
.*                      MNOTES INDICATING THE ERROR                     04200000
.*                      EXECUTION:                                      04250000
.*                      PHASE DEPENDENT                                 04300000
.*                                                                      04350000
.*                                                                      04400000
.*  EXTERNAL REFEREN.=  NONE                                            04450000
.*  ROUTINES         =  SVC 107 (SUPERVISOR GENERATION MACRO SGTINF)    04500000
.*  DATA AREAS       =  NONE                                            04550000
.*  CONTROL BLOCKS   =  NONE                                            04600000
.*  TABLES           =  NONE                                            04650000
.*  MACROS           =  NONE                                            04700000
.*  CHANGE ACTIVITIES=  NEW MACRO   FIRST REL. AF 2.1 12/06/82          04750000
.*  MODIFIED REGISTER=  REGISTER 15                                     04800000
.*                                                                      04850000
.*  A000000-999999                                             @D14CDWK 04900000
.*                                                                      04950000
.** END OF SPECICATIONS *********************************************** 05000000
.*                                                                      05050000
         AIF   (T'&MODULE EQ 'O').NOTE01      NAME MUST BE SPECIFIED    05100000
&FC      SETA  70                             FC FOR LIBR               05250000
         AIF   ('&MODULE' EQ 'LIBR').BEGIN    INVALID NAME              05262552
&FC      SETA  156                            FC FOR LIBR               05275052
         AIF   ('&MODULE' NE 'ALET').NOTE02   INVALID NAME              05287552
.*                                                                      05300000
.BEGIN   ANOP                                                           05325052
&NAME    DC    0H'0'                                                    05350000
.*                                                                      05400000
         LA    15,&FC                         SET FUNCTION CODE         05450000
         SVC   107                            HANDLE REQUEST            05500000
         MEXIT                                                          05550000
.*                                                                      05600000
.*--------------------------------------------------------------------- 05650000
.*       MNOTES                                                         05700000
.*--------------------------------------------------------------------- 05750000
.*                                                                      05800000
.NOTE01  MNOTE 8,'NAME SPECIFICATION REQUIRED FOR SENTER MACRO'         05850000
         MEXIT                                                          05900000
.NOTE02  MNOTE 8,'INVALID NAME=&MODULE SPECIFIED '                      05950000
         MEND                                                           06000000
*                                                                       06050000
*---------------------------------------------------------------------- 06100000
*---------------------------------------------------------------------- 06150000
*        PL/S PART OF MACRO FOLLOWS                                     06200000
*---------------------------------------------------------------------- 06250000
*---------------------------------------------------------------------- 06300000
*                                      END OF PL/S COMMENT           */ 06350000
*%ENTERPLS :  ;                                                         06400000
*%SENTER:  MACRO ;                                                      06450000
* /*-----------------------------------------------------------------*/ 06500000
* /*     LIST MACRO INVOCATION IN SOURCE                             */ 06550000
* /*-----------------------------------------------------------------*/ 06600000
*    ANS ('/* '||MACLABEL||' '||MACNAME||' '||MACLIST||' '||MACKEYS||   06650000
*         '*/') COL(MACLMAR);                                           06700000
* ANS ('/*                                                   */')       06750000
* COL(MACLMAR);                                                         06800000
* ANS ('/*      SUPERVISOR - SENTER - 5686-007-06-C44        */')       06850000
* COL(MACLMAR);                                                         06900000
* ANS ('/*                                                   */')       06950000
* COL(MACLMAR);                                                         07000000
* /*-----------------------------------------------------------------*/ 07050000
* /*     CHECK SPECIFIED OPERAND                                     */ 07100000
* /*-----------------------------------------------------------------*/ 07150000
*    IF NUMBER(MACLIST) = 0  THEN      /* MODULE OPERAND REQUIRED    */ 07200000
*       GO TO MERR01;                  /*                            */ 07250000
*    IF NUMBER(MACLIST) ¬= 1 THEN      /* MORE THEN ONE POSITIONAL   */ 07300000
*       GO TO MERR02;                  /* OPERAND                    */ 07350000
*    IF NUMBER(MACLIST(1)) ¬= 1 THEN   /* SUBLIST SPECIFICATION IN-  */ 07400000
*       GO TO MERR03;                  /* VALID                      */ 07450000
*    IF(MACLIST(1) ¬= 'LIBR') &        /*                            */ 07483352
*      (MACLIST(1) ¬= 'ALET') THEN     /* MODULE SPECIFICATION IN-   */ 07516652
*       GO TO MERR04;                  /* VALID                      */ 07550000
* /*-----------------------------------------------------------------*/ 07600000
* /*     DECLARE NECESSARY REGISTER                                  */ 07650000
* /*-----------------------------------------------------------------*/ 07700000
* ANS ('DCL REGF'||MACINDEX||' REG(15) PTR(31);')RESCAN SKIP COL(10);   07750000
* ANS ('/* SPECIFY REGISTER 15       */') COL(41);                      07800000
* ANS ('RFY (REGF'||MACINDEX||') RSTD;')RESCAN SKIP COL(10);            07850000
* ANS ('/* RESTRICT REGISTER 15      */') COL(41);                      07900000
* IF MACLABEL ¬= '' THEN               /* IF LABEL SPECIFIED         */ 07950000
* ANS (''||MACLABEL||';') COL(MACLMAR);                                 08000000
* /*-----------------------------------------------------------------*/ 08050000
* /*     SET FUNCTION CODE                                           */ 08100000
* /*-----------------------------------------------------------------*/ 08150000
*    IF(MACLIST(1) = 'LIBR')  THEN     /*                            */ 08175052
* ANS ('REGF'||MACINDEX||' = 70 ;')RESCAN SKIP COL(10);                 08200000
*    IF(MACLIST(1) = 'ALET')  THEN     /*                            */ 08216652
* ANS ('REGF'||MACINDEX||' = 156 ;')RESCAN SKIP COL(10);                08233252
* ANS ('/* INDICATE FUNCTION         */') COL(41);                      08250000
* ANS ('SVC(107);') SKIP COL(10);                                       08300000
* ANS ('/*                           */') COL(41);                      08350000
* ANS ('RFY (REGF'||MACINDEX||') UNRSTD;')RESCAN SKIP COL(10);          08400000
* RETURN CODE(0);                      /* EXIT                       */ 08450000
* /*-----------------------------------------------------------------*/ 08500000
* /*     MACRO NOTES                                                 */ 08550000
* /*-----------------------------------------------------------------*/ 08600000
* MERR01 :                             /*                            */ 08650000
* ANS MSG('NAME SPECIFICATION REQUIRED FOR SENTER MACRO ;');            08700000
* ANS ('/* NAME SPECIFICATION REQUIRED FOR SENTER MACRO */')            08750000
* COL(MACLMAR);                        /*                            */ 08800000
* RETURN CODE(8);                      /*                            */ 08850000
* MERR02 :                             /*                            */ 08900000
* ANS MSG('MORE THEN ONE POSITIONAL OPERAND SPECIFIED ;');              08950000
* ANS ('/* MORE THEN ONE POSITIONAL OPERAND SPECIFIED */')COL(MACLMAR); 09000000
* RETURN CODE(8);                      /*                            */ 09050000
* MERR03 :                             /*                            */ 09100000
* ANS MSG('SUBLIST SPECIFICATION NOT VALID ;');                         09150000
* ANS ('/* SUBLIST SPECIFICATION NOT VALID */')COL(MACLMAR);            09200000
* RETURN CODE(8);                      /*                            */ 09250000
* MERR04 :                             /*                            */ 09300000
* ANS MSG('INVALID NAME='||MACLIST(1)||' SPECIFIED ;')RESCAN ;          09350000
* ANS ('/* INVALID NAME='||MACLIST(1)||' SPECIFIED */')RESCAN           09400000
* COL(MACLMAR);                                                         09450000
* RETURN CODE(8);                      /*                            */ 09500000
*%END ;                                /*                            */ 09550000
