         MACRO                                                          00050000
&NAME    SETAPP                                                         00100000
.*       IBM DISK OPERATING SYSTEM                            *         00150000
*        SUPERVISOR - SETAPP - 5686-007-06-C44                *         00200000
         AGO   .ZZZ                                           *         00250000
*        THIS MACRO IS "RESTRICTED MATERIALS OF IBM"          *         00300000
*        5686-007 (C) COPYRIGHT IBM CORP. 1981,1989           *         00350000
*        ALL RIGHTS RESERVED                                  *         00400000
*        LICENSED MATERIALS-PROPERTY OF IBM                   *         00450000
*        SEE COPYRIGHT INSTRUCTIONS, G120-2083                *         00500000
.ZZZ     ANOP                                                 *         00550000
&NAME    SVC   73                  ALLOW CE APPENDAGES                  00600000
         MEND                                                           00650000
