*%/*                                                                    00034300
         MACRO                                                          00068600
&NAME    SETLOCK &REQUEST,&TYPE=,&MODE=,&RELATED=,                     X00102901
               &REGS=,&BRANCH=,&LOCKHLD=                                00137201
*        OS/390 API - LOCK - 5686-066-14                                00167201
.**************************************************************         00205800
.*01*  MACRO NAME = SETLOCK                                             00240100
.*                                                                      00274400
.*01*  COPYRIGHT =                                                 @L4A 00308700
.*              LICENSED MATERIALS - PROPERTY OF IBM                    00362990
.*              "RESTRICTED MATERIALS OF IBM"                           00382980
.*              5686-066                                                00402970
.*              (C)COPYRIGHT IBM CORP. 1996                             00422960
.*                                                                      00480200
.*01*  STATUS = HBB4410                                            @L4A 00514500
.*                                                                      00548800
.*01*  FUNCTION = GENERATE THE LINKAGE TO SPIN AND SUSPEND              00583100
.*                LOCK MANAGER                                          00617400
.*                                                                      00651700
.*01*  COMPONENT = SC1C5 (SUPERVISOR CONTROL)                           00686000
.*                                                                      00720300
.*01*  MACLIB = AMACLIB                                                 00754600
.*                                                                      00788900
.*02*   NOTES =                                                         00823200
.*        AR-MODE INVOKERS:                                        @L3A 00857500
.*          SYSSTATE IS USED TO TEST FOR AN AR-MODE INVOKER.            00891800
.*          FOR INSTRUCTIONS SUCH AS LM WITH NO INDEX REGISTER, THE     00926100
.*            AR OF THE BASE REGISTER IS SET BEFOREHAND.                00960400
.*          PRIMARY MODE IS ENTERED BEFORE THE CALL, AND AR-MODE        00994700
.*            IS REENTERED AFTER THE CALL.                              01029000
.*          R14 HOLDS THE PSALITA RATHER THAN R13 TO CONFORM TO THE     01063300
.*            PL/AS SUPPORT.                                            01097600
.*          FOR REGS=SAVE, THE STM IS DONE OFF R13 SINCE AR13 MUST HAVE 01131900
.*            BEEN ESTABLISHED BY AN AR-MODE INVOKER.                   01166200
.*          FOR REGS=SAVE, UPON RETURN, SINCE AR13 IS NEEDED TO DO THE  01200500
.*            LM, BUT THE ADDRESS IS IN R15 WITH THE RETURN CODE IN     01234800
.*            R13, THE TWO REGS ARE SWAPPED BEFORE DOING THE LM.        01269100
.*            THIS SAVES A STORAGE REFERENCE.                           01303400
.*          FOR LM OF ONLY 2 REGS, RATHER THAN SETTING THE AR, 2 LOADS  01337700
.*            ARE DONE SPECIFYING INDEX RATHER THAN BASE REG.           01372000
.*        WHEN REGS=STDSAVE IS SPECIFIED, ONLY GENERAL REGISTERS 2-12   01406300
.*          ARE PRESERVED.  GENERAL REGISTERS 14,15,0, AND 1 ARE NOT    01440600
.*          RESTORED BECAUSE ACCESS REGISTERS 14,15,0, AND 1 MAY NOT    01474900
.*          BE COUNTED ON ACROSS THE MACRO CALL.                        01509200
.*                                                                      01543500
.*01*  SYNTAX  =                                                        01577800
.*                                                                      01612100
.* LABEL: SETLOCK                                                       01646400
.*                                                                      01680700
.*        OBTAIN                                                        01715000
.*                                                                      01749300
.*          ,TYPE=                                                      01783601
.*                                                                      02160900
.*                CMS                                                   02195201
.*                                                                      02229500
.*                LOCAL                                                 03224201
.*                                                                      03258500
.*                                                                      04939200
.*          ,MODE=COND                                                  04973501
.*                UNCOND                                                05042101
.*                                                                      05076400
.*        < ,REGS=SAVE                                                  05110700
.*                USE                                                   05145000
.*                STDSAVE  >                                            05179300
.*                                                                      05213600
.*        < ,RELATED=VALUE  >                                           05247900
.*                                                                      05282200
.*                                                                      05831000
.*        RELEASE                                                       05865300
.*                                                                      05899600
.*          ,TYPE=                                                      05933901
.*                                                                      06379800
.*                CMS                                                   06414100
.*                                                                      07408800
.*                LOCAL                                                 07443100
.*                                                                      07477400
.*                                                                      09363900
.*        < ,REGS=SAVE                                                  09398200
.*                USE                                                   09432500
.*                STDSAVE  >                                            09466800
.*                                                                      09501100
.*        < ,RELATED=VALUE  >                                           09535400
.*                                                                      09569700
.*                                                                      09604000
.*        TEST                                                          09638300
.*                                                                      09672600
.*          ,TYPE=                                                      09706901
.*                                                                      09741200
.*                ALOCAL   < ,LOCKHLD=(SYMBOLIC REG) >                  09775500
.*                                                                      09809800
.*                CMS                                                   10152800
.*                                                                      11833500
.*                LOCAL                                                 11867800
.*                                                                      11902100
.*       < ,BRANCH=(HELD,LABEL)                                         13445600
.*                 (NOTHELD,LABEL) >                                    13479901
.*                                                                      13514200
.*       < ,RELATED=VALUE >                                             13617100
.*                                                                      13651400
.*   NOTES:                                                             13685700
.*                                                                      13720000
.*                                                                @L9A  14371700
.*                                                                      14406000
.*01*   CHANGE ACTIVITY =                                               14440300
.*    OZ35343 - CHANGE REFERENCES TO PSA LOCATIONS TO USE EXPLICIT      14474600
.*              ADDRESSABILITY SO THAT A USING PSA,0 IS NOT NEEDED TO   14508900
.*              INVOKE THE MACRO                                        14543200
.*                                                                      14577500
.*  $L1=AR       HBB3310  850801  PD16H4:  ACCESS REGISTER SUPPORT      14611800
.*  $L2=DATASPAC HBB3310  860220  PD22XB:  AR-MODE INVOKER SUPPORT      14646100
.*  $L3=DATASPAC HBB3310  860903  PD16Q4:  RSMDS LOCK                   14680400
.*  $D1=DCR0031  HBB3310  860903  PD16Q4:  IOS LOCK                     14714700
.*  $P1=PC40381  HBB3310  861101  PD16H4:  LOAD PARMS BEFORE PSALITA    14749000
.*  $P2=PC40337  HBB3310  861229  PD16Q4:  TEST FOR LOCK PARM WHEN      14783300
.*                                         TYPE=HIER IS NOT SPECIFIED   14817600
.*                                         ON TEST OPTION               14851900
.*  $L4=LOCKR    HBB4410  880715  PD16BN:  ADD STDSAVE OPTION FOR       14886200
.*                                         REGS KEYWORD                 14920500
.*  $L5=COUPL    HBB4410  880715  PD16BN:  XCFDS,XCFRES,XCFQ LOCKS      14954800
.*  $L6=CLOCK    HBB4410  870831  PD16BN:  ETRSET LOCK                  14989100
.*  $L7=JUP03    HBB4410  880715  PD16BN:  BMFLSD LOCK                  15023400
.*  $L8=LOCKR    HBB4410  870831  PD16BN:  LOCK RESTRUCTURE             15057700
.*  $P3=PEO0033  HBB4410  871026  PD16BN:  ADD SPACE AFTER COMMA ON     15092000
.*                                         SETLOCK8 INVOCATION          15126300
.*  $P4=PHB1079  HBB4410  890313  PD16BN:  PUT OUT CORRECT MNOTE FOR    15160600
.*                                         OBTAIN,TYPE=ALL              15194900
.*  $L9=USERV    FBB4418  890626  PD16EJ:  UCB SERVICES SUPPORT         15229200
.*                                         IOSULUT SPIN LOCK ADDED      15263500
.*  @D64ADTN                        :VSE/ESA COMPATIBILITY WITH MVS/ESA 15280601
.*                                                                      15297800
.*                                                                      15332100
.**************************************************************@G50EPXS 15366400
.*                                                                      15400700
.*   CMSSMF LOCK SUPPORT                                       @G741PXT 15435000
.*   CML LOCK SUPPORT                                          @G387PXR 15469300
.*   DELETE IOSCAT,IOSLCH LOCKS                                @G860PXB 15503600
.*   CHANGES FOR SALLOC LOCK BREAKUP                           @G860PXA 15537900
.*   ADD CPU LOCK                                              @G860PXA 15572200
.*   CML TEST SUPPORT                                          @G382PXR 15606500
.*   ADD TEST SUPPORT FOR THE SALLOC LOCK BREAKUP              @G860PXA 15640800
.*   SUPPORT NEW INTERFACE FOR RELEASE ALL AND RELEASE REG     @G860PXA 15675100
.*   CPU TEST SUPPORT                                          @G860PXK 15709400
.*   ADD RSMCM LOCK                                            @G860PXJ 15743700
.*   ADD TEST SUPPORT FOR TYPE=HIER                            @G860PXA 15778000
.*   ADD "MODE=(COND,IN)" SUPPORT FOR CML LOCK OBTAIN              @L1A 15812300
.*   ADD RSMDS LOCK                                                @L3A 15846600
.*   ADD IOS LOCK                                                  @D1A 15880900
.*   ADD STDSAVE                                                   @L4A 15915200
.*   ADD XCFDS, XCFRES, AND XCFQ LOCKS                             @L5A 15949500
.*   ADD ETRSET LOCK                                               @L6A 15983800
.*   ADD BMFLSD LOCK                                               @L7A 16018100
.*   ADD LOCK RESTRUCTURE SUPPORT                                  @L8A 16052400
.*   ADD IOSULUT LOCK SUPPORT                                      @L9A 16086700
.*                                                                      16121000
.**************************************************************@G860PXK 16155300
.*                                                                      16189600
         GBLC  &SYSASCE             GLOBAL FOR SYSSTATE MACRO      @L2A 16223900
         SYSSTATE TEST              OBTAIN DEFAULT SYSASCE         @L2A 16258200
.********************************************************************** 16397400
.*   CHECK FOR UNSUPPORTED KEYWORDS IN THE VSE ENVIRONMENT   @D64ADTN * 16399401
.********************************************************************** 16401400
         LCLC  &ADDR                LOCAL SETTING AS DEFAULT   @D64ADIS 16401508
         LCLC  &ASCB                LOCAL SETTING AS DEFAULT   @D64ADIS 16401608
         LCLC  &DISABLE             LOCAL SETTING AS DEFAULT   @D64ADIS 16401708
         LCLC  &LOCK                LOCAL SETTING AS DEFAULT   @D64ADIS 16401808
         LCLC  &SCOPE               LOCAL SETTING AS DEFAULT   @D64ADIS 16401908
         LCLC  &WORKREG             LOCAL SETTING AS DEFAULT   @D64ADIS 16402008
         AIF   ('&TYPE' EQ 'CMS').VSECHK1                      @D64ADTN 16404401
         AIF   ('&TYPE' EQ 'LOCAL').VSECHK1                    @D64ADTN 16405901
         AIF   ('&TYPE' EQ 'ALOCAL').VSECHK1                   @D64ADTN 16407401
         AIF   (T'&TYPE EQ 'O').ERRTYPE                        @D64ADUL 16409601
         AGO   .ERRVSE1                                        @D64ADTN 16410401
.VSECHK1 ANOP                                                  @D64ADTN 16411901
         AIF   ('&MODE' EQ '(COND,IN)').ERRVSE2                @D64ADTN 16413401
         AIF   (T'&DISABLE NE 'O').ERRDIS2                     @D64ADTN 16415401
         AIF   (T'&SCOPE NE 'O').NOSCOPE                       @D64ADTN 16417401
         AIF   (T'&LOCK NE 'O').ERRVSE3                        @D64ADTN 16419401
         AIF   (T'&WORKREG NE 'O').ERRVSE4                     @D64ADTN 16421401
.********************************************************************** 16423400
.*   CHECK FOR UNSUPPORTED KEYWORDS IN THE VSE ENVIRONMENT   @D64ADTN * 16425401
.********************************************************************** 16427400
         GBLC  &MESSAGE                                                 16429700
         LCLA  &INDEX                                              @L8C 16464000
         LCLA  &OFSET,&MASK,&BYTE                                       16498300
         LCLA  &X,&FCN,&PSAPTR                                     @L8A 16532600
         LCLA  &COBT(44),&UOBT(44),&REL(44),&RELD(44)              @L9A 16566900
         LCLC  &MESSAG2,&REG1                                      @L8C 16601200
         LCLC  &LABEL                                              @L8C 16635500
         LCLC  &LKNAMES(44)                                        @L9A 16669800
         LCLC  &GNAME1,&GNAME2,&GNAME3,&GNAME4                     @L8A 16704100
.*                                                                      16738400
.*******************************************************************    16772700
.*                                                                 *    16807000
.*       LOCK NAMES                                                *    16841300
.*                                                                 *    16875600
.*******************************************************************    16909900
.*                                                                      16944200
&LKNAMES(1)  SETC 'DISP'                                           @L8A 16978500
&LKNAMES(2)  SETC 'RSMDS'                                          @L8A 17012800
&LKNAMES(3)  SETC 'IOSUCB'                                         @L8A 17047100
&LKNAMES(4)  SETC 'IOSLCH'                                         @L8A 17081400
&LKNAMES(5)  SETC 'IOSYNCH'                                        @L8A 17115700
&LKNAMES(6)  SETC 'TPNCB'                                          @L8A 17150000
&LKNAMES(7)  SETC 'TPDNCB'                                         @L8A 17184300
&LKNAMES(8)  SETC 'TPACBDEB'                                       @L8A 17218600
&LKNAMES(9)  SETC 'ASM'                                            @L8A 17252900
&LKNAMES(10) SETC 'SALLOC'                                         @L8A 17287200
&LKNAMES(11) SETC 'SRM'                                            @L8A 17321500
&LKNAMES(12) SETC 'CMS'                                            @L8A 17355800
&LKNAMES(13) SETC 'LOCAL'                                          @L8A 17390100
&LKNAMES(14) SETC 'SPIN'                                           @L8A 17424400
&LKNAMES(15) SETC 'CMSEQDQ'                                        @L8A 17458700
&LKNAMES(16) SETC 'CMSALL'                                         @L8A 17493000
&LKNAMES(17) SETC 'ALLCMSHELD'                                     @L8A 17527300
&LKNAMES(18) SETC 'CMSSMF'                                         @L8A 17561600
&LKNAMES(19) SETC 'CML'                                            @L8A 17595900
&LKNAMES(20) SETC 'TRACE_S'                                        @L8A 17630200
&LKNAMES(21) SETC 'TRACE_E'                                        @L8A 17664500
&LKNAMES(22) SETC 'VSMPAG'                                         @L8A 17698800
&LKNAMES(23) SETC 'RSM_S'                                          @L8A 17733100
&LKNAMES(24) SETC 'RSM_E'                                          @L8A 17767400
&LKNAMES(25) SETC 'RSMAD'                                          @L8A 17801700
&LKNAMES(26) SETC 'RSMXM'                                          @L8A 17836000
&LKNAMES(27) SETC 'RSMST'                                          @L8A 17870300
&LKNAMES(28) SETC 'ASMGL'                                          @L8A 17904600
&LKNAMES(29) SETC 'VSMFIX'                                         @L8A 17938900
&LKNAMES(30) SETC 'RSMGL'                                          @L8A 17973200
&LKNAMES(31) SETC 'CPU'                                            @L8A 18007500
&LKNAMES(32) SETC 'ALL'                                            @L8A 18041800
&LKNAMES(33) SETC '(REG)'                                          @L8A 18076100
&LKNAMES(34) SETC 'RSMCM'                                          @L8A 18110400
&LKNAMES(35) SETC 'IOS_S'                                          @L8A 18144700
&LKNAMES(36) SETC 'IOS_E'                                          @L8A 18179000
&LKNAMES(37) SETC 'BMFLSD'                                         @L7A 18213300
&LKNAMES(38) SETC 'ETRSET'                                         @L6A 18247600
&LKNAMES(39) SETC 'XCFDS'                                          @L5A 18281900
&LKNAMES(40) SETC 'XCFRES'                                         @L5A 18316200
&LKNAMES(41) SETC 'XCFQ_S'                                         @L5A 18350500
&LKNAMES(42) SETC 'XCFQ_E'                                         @L5A 18384800
&LKNAMES(43) SETC 'IOSULUT_S'                                      @L9A 18419100
&LKNAMES(44) SETC 'IOSULUT_E'                                      @L9A 18453400
.*                                                                      18487700
.*******************************************************************    18522000
.*                                                                 *    18556300
.*       CONDITIONAL OBTAIN LIT OFFSETS (DECIMAL)                  *    18590600
.*                                                                 *    18624900
.*******************************************************************    18659200
.*                                                                      18693500
&COBT(1)     SETA 0           DISPATCHER LOCK                      @L8A 18727800
&COBT(2)     SETA 48          RSMDS LOCK                           @L8A 18762100
&COBT(3)     SETA 96          IOSUCB LOCK                          @L8A 18796400
&COBT(4)     SETA 144         IOSLCH LOCK - NO LONGER SUPPORTED    @L8A 18830700
&COBT(5)     SETA 192         IOSYNCH LOCK                         @L8A 18865000
&COBT(6)     SETA 240         TPNCB LOCK - NO LONGER SUPPORTED     @L8A 18899300
&COBT(7)     SETA 288         TPDNCB LOCK - NO LONGER SUPPORTED    @L8A 18933600
&COBT(8)     SETA 336         TPACBDEB LOCK                        @L8A 18967900
&COBT(9)     SETA 384         ASM LOCK                             @L8A 19002200
&COBT(10)    SETA 432         SALLOC LOCK                          @L8A 19036500
&COBT(11)    SETA 480         SRM LOCK                             @L8A 19070800
&COBT(12)    SETA 528         CMS LOCK                             @L8A 19105100
&COBT(13)    SETA 564         LOCAL LOCK                           @L8A 19139400
&COBT(14)    SETA -1          SPIN - USED FOR RELEASE ONLY         @L8A 19173700
&COBT(15)    SETA 612         CMSEQDQ LOCK                         @L8A 19208000
&COBT(16)    SETA -1          CMSALL - COND OBTAIN NOT SUPPORTED   @L8A 19242300
&COBT(17)    SETA -1          ALL CMS LOCKS HELD- FOR RELEASE ONLY @L8A 19276600
&COBT(18)    SETA 684         CMSSMF LOCK                          @L8A 19310900
&COBT(19)    SETA 720         CML LOCK                             @L8A 19345200
&COBT(20)    SETA 756         TRACE LOCK - SHARED ENTRY            @L8A 19379500
&COBT(21)    SETA 804         TRACE LOCK - EXCLUSIVE ENTRY         @L8A 19413800
&COBT(22)    SETA 852         VSMPAG LOCK                          @L8A 19448100
&COBT(23)    SETA 900         RSM LOCK - SHARED ENTRY              @L8A 19482400
&COBT(24)    SETA 948         RSM LOCK - EXCLUSIVE ENTRY           @L8A 19516700
&COBT(25)    SETA 996         RSMAD LOCK                           @L8A 19551000
&COBT(26)    SETA 1044        RSMXM LOCK                           @L8A 19585300
&COBT(27)    SETA 1092        RSMST LOCK                           @L8A 19619600
&COBT(28)    SETA 1140        ASMGL LOCK                           @L8A 19653900
&COBT(29)    SETA 1188        VSMFIX LOCK                          @L8A 19688200
&COBT(30)    SETA 1236        RSMGL LOCK                           @L8A 19722500
&COBT(31)    SETA 1284        CPU LOCK                             @L8A 19756800
&COBT(32)    SETA -1          ALL - USED FOR RELEASE ONLY          @L8A 19791100
&COBT(33)    SETA -1          (REG) - USED FOR RELEASE ONLY        @L8A 19825400
&COBT(34)    SETA 1356        RSMCM LOCK                           @L8A 19859700
&COBT(35)    SETA 1420        IOS LOCK - SHARED ENTRY              @L8A 19894000
&COBT(36)    SETA 1468        IOS LOCK - EXCLUSIVE ENTRY           @L8A 19928300
&COBT(37)    SETA 0           BMFLSD LOCK                          @L7A 19962600
&COBT(38)    SETA 48          ETRSET LOCK                          @L6A 19996900
&COBT(39)    SETA 96          XCFDS LOCK                           @L5A 20031200
&COBT(40)    SETA 144         XCFRES LOCK                          @L5A 20065500
&COBT(41)    SETA 192         XCFQ LOCK - SHARED ENTRY             @L5A 20099800
&COBT(42)    SETA 240         XCFQ LOCK - EXCLUSIVE ENTRY          @L5A 20134100
&COBT(43)    SETA 292         IOSULUT LOCK - SHARED ENTRY          @L9A 20168400
&COBT(44)    SETA 340         IOSULUT LOCK - EXCLUSIVE ENTRY       @L9A 20202700
.*                                                                      20237000
.*******************************************************************    20271300
.*                                                                 *    20305600
.*       UNCONDITIONAL OBTAIN LIT OFFSETS (DECIMAL)                *    20339900
.*                                                                 *    20374200
.*******************************************************************    20408500
.*                                                                      20442800
&UOBT(1)     SETA 12          DISPATCHER LOCK                      @L8A 20477100
&UOBT(2)     SETA 60          RSMDS LOCK                           @L8A 20511400
&UOBT(3)     SETA 108         IOSUCB LOCK                          @L8A 20545700
&UOBT(4)     SETA 156         IOSLCH LOCK - NO LONGER SUPPORTED    @L8A 20580000
&UOBT(5)     SETA 204         IOSYNCH LOCK                         @L8A 20614300
&UOBT(6)     SETA 252         TPNCB LOCK - NO LONGER SUPPORTED     @L8A 20648600
&UOBT(7)     SETA 300         TPDNCB LOCK - NO LONGER SUPPORTED    @L8A 20682900
&UOBT(8)     SETA 348         TPACBDEB LOCK                        @L8A 20717200
&UOBT(9)     SETA 396         ASM LOCK                             @L8A 20751500
&UOBT(10)    SETA 444         SALLOC LOCK                          @L8A 20785800
&UOBT(11)    SETA 492         SRM LOCK                             @L8A 20820100
&UOBT(12)    SETA 540         CMS LOCK                             @L8A 20854400
&UOBT(13)    SETA 576         LOCAL LOCK                           @L8A 20888700
&UOBT(14)    SETA -1          SPIN - USED FOR RELEASE ONLY         @L8A 20923000
&UOBT(15)    SETA 624         CMSEQDQ LOCK                         @L8A 20957300
&UOBT(16)    SETA 648         CMSALL                               @L8A 20991600
&UOBT(17)    SETA -1          ALL CMS LOCKS HELD- FOR RELEASE ONLY @L8A 21025900
&UOBT(18)    SETA 696         CMSSMF LOCK                          @L8A 21060200
&UOBT(19)    SETA 732         CML LOCK                             @L8A 21094500
&UOBT(20)    SETA 768         TRACE LOCK - SHARED ENTRY            @L8A 21128800
&UOBT(21)    SETA 816         TRACE LOCK - EXCLUSIVE ENTRY         @L8A 21163100
&UOBT(22)    SETA 864         VSMPAG LOCK                          @L8A 21197400
&UOBT(23)    SETA 912         RSM LOCK - SHARED ENTRY              @L8A 21231700
&UOBT(24)    SETA 960         RSM LOCK - EXCLUSIVE ENTRY           @L8A 21266000
&UOBT(25)    SETA 1008        RSMAD LOCK                           @L8A 21300300
&UOBT(26)    SETA 1056        RSMXM LOCK                           @L8A 21334600
&UOBT(27)    SETA 1104        RSMST LOCK                           @L8A 21368900
&UOBT(28)    SETA 1152        ASMGL LOCK                           @L8A 21403200
&UOBT(29)    SETA 1200        VSMFIX LOCK                          @L8A 21437500
&UOBT(30)    SETA 1248        RSMGL LOCK                           @L8A 21471800
&UOBT(31)    SETA 1284        CPU LOCK                             @L8A 21506100
&UOBT(32)    SETA -1          ALL - USED FOR RELEASE ONLY          @L8A 21540400
&UOBT(33)    SETA -1          (REG) - USED FOR RELEASE ONLY        @L8A 21574700
&UOBT(34)    SETA 1368        RSMCM LOCK                           @L8A 21609000
&UOBT(35)    SETA 1432        IOS LOCK - SHARED ENTRY              @L8A 21643300
&UOBT(36)    SETA 1480        IOS LOCK - EXCLUSIVE ENTRY           @L8A 21677600
&UOBT(37)    SETA 12          BMFLSD LOCK                          @L7A 21711900
&UOBT(38)    SETA 60          ETRSET LOCK                          @L6A 21746200
&UOBT(39)    SETA 108         XCFDS LOCK                           @L5A 21780500
&UOBT(40)    SETA 156         XCFRES LOCK                          @L5A 21814800
&UOBT(41)    SETA 204         XCFQ LOCK - SHARED ENTRY             @L5A 21849100
&UOBT(42)    SETA 252         XCFQ LOCK - EXCLUSIVE ENTRY          @L5A 21883400
&UOBT(43)    SETA 304         IOSULUT LOCK - SHARED ENTRY          @L9A 21917700
&UOBT(44)    SETA 352         IOSULUT LOCK - EXCLUSIVE ENTRY       @L9A 21952000
.*                                                                      21986300
.*******************************************************************    22020600
.*                                                                 *    22054900
.*       RELEASE LIT OFFSETS (DECIMAL)                             *    22089200
.*                                                                 *    22123500
.*******************************************************************    22157800
.*                                                                      22192100
&REL(1)      SETA 24          DISPATCHER LOCK                      @L8A 22226400
&REL(2)      SETA 72          RSMDS LOCK                           @L8A 22260700
&REL(3)      SETA 120         IOSUCB LOCK                          @L8A 22295000
&REL(4)      SETA 168         IOSLCH LOCK - NO LONGER SUPPORTED    @L8A 22329300
&REL(5)      SETA 216         IOSYNCH LOCK                         @L8A 22363600
&REL(6)      SETA 264         TPNCB LOCK - NO LONGER SUPPORTED     @L8A 22397900
&REL(7)      SETA 312         TPDNCB LOCK - NO LONGER SUPPORTED    @L8A 22432200
&REL(8)      SETA 360         TPACBDEB LOCK                        @L8A 22466500
&REL(9)      SETA 408         ASM LOCK                             @L8A 22500800
&REL(10)     SETA 456         SALLOC LOCK                          @L8A 22535100
&REL(11)     SETA 504         SRM LOCK                             @L8A 22569400
&REL(12)     SETA 552         CMS LOCK                             @L8A 22603700
&REL(13)     SETA 588         LOCAL LOCK                           @L8A 22638000
&REL(14)     SETA 600         SPIN - RELEASE ALL SPIN LOCKS HELD   @L8A 22672300
&REL(15)     SETA 636         CMSEQDQ LOCK                         @L8A 22706600
&REL(16)     SETA 660         CMSALL                               @L8A 22740900
&REL(17)     SETA 672         ALL CMS LOCKS HELD                   @L8A 22775200
&REL(18)     SETA 708         CMSSMF LOCK                          @L8A 22809500
&REL(19)     SETA 744         CML LOCK                             @L8A 22843800
&REL(20)     SETA 780         TRACE LOCK - SHARED ENTRY            @L8A 22878100