*%GOTO  MCSTDATA; /* BILINGUAL MAPPING                                  00050061
         MACRO                                                          00100061
&NAME    SGCSTDAT &DSECT=NO                                             00150061
         GBLB   &BGDEBUG                                                00200061
         GBLB   &SGDOC                                                  00250061
         LCLB   &TY                                                     00300061
         LCLC   &CS                                                     00350061
         LCLC   &BL                                                     00400061
.*       IBM DISK OPERATING SYSTEM                                      00450061
**********************************************************************  00500061
*        SUPERVISOR - SGCSTDAT - 5686-066-06                            00550061
*        THIS MACRO IS "RESTRICTED MATERIALS OF IBM"                    00600061
*        5686-066 (C) COPYRIGHT IBM CORP. 1995                          00650061
*        LICENSED MATERIALS-PROPERTY OF IBM                             00700061
*        SEE COPYRIGHT INSTRUCTIONS G120-2083                           00750061
**********************************************************************  00800061
         SPACE 4                                                        00850061
.**** START OF SPECIFICATIONS ****************************************  00900061
.*                                                                      00950061
.*01* MODULE-TYPE = MACRO                                               01000061
.*                                                                      01050061
.*01* DESCRIPTIVE NAME = A) MAPPING OF  CSTDATA, DSECT=YES              01100061
.*                       B) MAPPING AND INLINE CODE OF CSTDATA,DSECT=NO 01150061
.*                                                                      01200061
.*  STATUS           =  NEW MACRO - FIRST RELEASE AF 6.1.0              01250061
.*                                                                      01300061
.*  FUNCTION         =  LAYOUT OF CST TASK RELATED DATA AREAS           01350061
.*  NOTES            =  NONE                                            01400061
.*  DEPENDENCIES     =  NONE                                            01450061
.*  RESTRICTIONS     =  NONE                                            01500061
.*  REGISTER CONVENT.=  SEE INLINE COMMENTS                             01550061
.*  PATCH LABEL      =  NONE                                            01600061
.*  MACRO TYPE       =  BILINGUAL                                       01650061
.*  PROCESSOR        =  ASM AND PLX                                     01700061
.*  MACRO SIZE       =  SEE OUTPUT                                      01750061
.*  ATTRIBUTES       =  MAPPING DSECT AND/OR INLINE CODE                01800061
.*  ENTRY POINT      =  &NAME OR A(CSTDATA)                             01850061
.*  PURPOSE          =  SEE FUNCTION                                    01900061
.*  LINKAGE          =  SEE INPUT                                       01950061
.*  CALLER           =                                                  02000061
.*  INPUT            =  SEE MACRO PARAMETER                             02050061
.*                                                                      02100061
.*  OUTPUT           =  DSECT OR INLINE CODE OF SGCSTDAT                02150061
.*                                                                      02200061
.*  EXIT NORMAL      =  MACRO EXPANSION                                 02250061
.*                                                                      02300061
.*  EXIT ERROR       =  NONE                                            02350061
.*                                                                      02400061
.*  EXTERNAL REFEREN.=  NONE                                            02450061
.*  ROUTINES         =  NONE                                            02500061
.*  DATA AREAS       =  NONE                                            02550061
.*  CONTROL BLOCKS   =  NONE                                            02600061
.*  TABLES           =  NONE                                            02650061
.*  MACROS           =  NONE                                            02700061
.*  CHANGE ACTIVITIES=  NEW MACRO   FIRST RELEASE AF 6.1.0              02750061
.*  MODIFIED REGISTER=  NONE                                            02800061
.*                                                                      02850061
.*                                                                      02900061
.* CHANGE ACTIVITY=                                                     02950061
.*       - A000000-999999                                      @D61CDGN 03000061
.*                                                                      03050061
.** END OF SPECICATIONS *********************************************** 03100061
.*                                                                      03150061
.MACBEG  ANOP                                                           03200061
         AIF (NOT &SGDOC  OR NOT &BGDEBUG).CSTNOPR                      03250061
         PRINT GEN                                                      03300061
.CSTNOPR ANOP                                                           03350061
         AIF ('&DSECT' EQ 'YES').DSECT  GENERATE SGCSTDAT  TABLE        03400061
         AIF ('&DSECT' EQ 'NO').INLINE  GENERATE SGCSTDAT  INLINE       03450061
         MNOTE 4,'INVALID DSECT OPERAND SPECIFIED, DSECT=YES ASSUMED'   03500061
.DSECT   ANOP                                                           03550061
&TY      SETB  0                                                        03600061
         AGO   .DSCT        CONTINUE WITH SGCSTDAT  DSECT               03650061
.INLINE  ANOP                                                           03700061
&TY      SETB  1                                                        03750061
&CS      SETC  'C'                                                      03800061
&BL      SETC  ''                                                       03850061
         DC    CL8'SGCSTDAT'    MACRO NAME                              03900061
         DC    CL8'94/05/24'    DATE OF LAST CHANGE            @D61CDGN 03950061
         DC    CL8'@D......'    LAST APAR FIX                           04000061
CSTDATA  DS    0D                                                       04050061
*********************************************************************** 04100061
* CSTDATA   -  CONSOLE TASK DATA AREA                                   04150061
*********************************************************************** 04200061
         AGO   .INL1                                                    04250061
.DSCT    ANOP                                                           04300061
*********************************************************************** 04350061
* CSTDATA   -  DSECT, CONSOLE TASK DATA AREA (IN SUPERVISOR)            04400061
*********************************************************************** 04450061
&NAME    DSECT                                                          04500061
&CS      SETC  'S'                                                      04550061
&BL      SETC  ' '                                                      04600061
.INL1    ANOP                                                           04650061
         SPACE 1                                                        04700061
*---------------------------------------------------------------------- 04750061
* CSTDATA   -  CONSOLE TASK ECB'S                                       04800061
*---------------------------------------------------------------------- 04850061
CSTLECB  D&CS  F&BL.'0'           CONSOLE TASK ALERT ECB                04900061
CSTAECB  D&CS  F&BL.'0'           CONSOLE TASK CONSOLE ATTENT ECB       04925061
CSTMECB  D&CS  F&BL.'0'           CONSOLE TASK MESSAGE ECB              04950061
CSTTECB  D&CS  F&BL.'0'           CONSOLE TASK TIMER ECB                05000061
         SPACE 1                                                        05100061
*---------------------------------------------------------------------- 05150061
* CSTDATA   -  CONSOLE TASK CCB                                         05200061
*---------------------------------------------------------------------- 05250061
CSTCCB   CCB   SYSLOG,CSTCCWCN,X'1500',CSTSNSI,CCW=FORMAT1 CST CCB      05300061
         ORG   CSTCCB+6                                                 05350061
         DC    X'08'              PHYSICAL ADDRESSING                   05400061
         ORG                                                            05550061
         SPACE 1                                                        05600061
*---------------------------------------------------------------------- 05650061
* CSTDATA   -  CONSOLE TASK CCW FORMAT 1                                05700061
*---------------------------------------------------------------------- 05750061
CSTCCWCN D&CS  X'02',X'20',X'0000',A(0) CONSOLE TASK UNIVERSAL CCW      05800061
         SPACE 1                                                        05850061
*---------------------------------------------------------------------- 05900061
* CSTDATA   -  CONSOLE TASK SENSE INFO FROM CONSOLE DEVICE              05950061
*---------------------------------------------------------------------- 06000061
CSTSNSI  D&CS  F'0'               CONSOLE TASK SENSE INFORMATION        06050061
         SPACE 1                                                        06057161
*---------------------------------------------------------------------- 06064261
* CSTDATA   -  CONSOLE TASK, ADDRESS OF LOAD ROUTINE                    06065361
*---------------------------------------------------------------------- 06066461
CSTALDCT D&CS  A(CSTLOAD)         ADDRESS OF LOAD ROUTINE               06067561
         SPACE 1                                                        06068661
*---------------------------------------------------------------------- 06069761
* CSTDATA   -  INPUT/OUTPUT FIELDS FOR CHECKING DICONNECTED STATE       06071361
*---------------------------------------------------------------------- 06078461
CSTCPCMD D&CS  CL12' '            CP COMMAND                            06085661
CSTCPRSP D&CS  CL80' '            CP RESPONSE                           06092861
         AIF (NOT &SGDOC  OR NOT &BGDEBUG).CSTPRNT                      06100061
         PRINT NOGEN                                                    06150061
.CSTPRNT ANOP                                                           06200061
         MEND                                                           06250061
*END OF PLS COMMENT */                                                  06300061
* %MCSTDATA:;                                                           06350061
*@EJECT ;                                                               06400061
* DECLARE                                                               06450061
* 1 CSTDATA  BASED BDY(DWORD), /* CONSOLE TASK DATA AREA             */ 06500061
*  2  CSTLECB   BIN(31),     /* CONSOLE TASK ALERT ECB               */ 06550061
*  2  CSTAECB   BIN(31),     /* CONSOLE TASK CONSOLE ATTENT ECB      */ 06575061
*  2  CSTMECB   BIN(31),     /* CONSOLE TASK MESSAGE ECB             */ 06600061
*  2  CSTTECB   BIN(31),     /* CONSOLE TASK TIMER ECB               */ 06650061
*  2  CSTCCB  LIKE CCBLIKE,  /* CONSOLE TASK CCB                     */ 06750061
*  2  CSTCCWCN,              /* CONSOLE TASK GENERAL CCW FORMAT 1    */ 06800061
*   3  CSTCCWOP BIN(8),      /*  CCW OP CODE                         */ 06850061
*   3  CSTCCWFL BIN(8),      /*  CCW FLAG BYTE                       */ 06900061
*   3  CSTCCWDL BIN(16),     /*  CCW DATA LENGTH                     */ 06950061
*   3  CSTCCWDA PTR(32),     /*  CCW DATA ADDRESS                    */ 07000061
*  2  CSTSNSI   BIN(32),     /* CONSOLE TASK SENSE INFORMATION       */ 07050061
*  2  CSTALDCT  PTR(31),     /* ADDRESS OF LOAD ROUTINE              */ 07075061
*  2  CSTCPCMD  CHAR(12),    /* CP COMMAND                           */ 07125061
*  2  CSTCPRSP  CHAR(80);    /* CP RESPONSE                          */ 07175061
