         MACRO                                                          00050061
&NAME    SGCUIR                                                         00100061
         GBLB  &SGCUIR      SGCUIR PRINT CONTROL SWITCH                 00196461
         GBLA  &AG1         NUMBER OF PUBS (MORE DEVICES)               00244661
         GBLB  &IJBSGEN     SUPERVISOR GENERATION                               
         AIF (&IJBSGEN).SUPVR                                                   
***************************************************************         01064061
*                                                                       01112261
*        LICENSED MATERIALS-PROPERTY OF IBM                             01160461
*        THIS MACRO IS "RESTRICTED MATERIALS OF IBM'                    01208661
*        5686-066 (C) COPYRIGHT IBM CORP. 1994, 2002                    01256800
*        SEE COPYRIGHT INSTRUCTIONS                                     01305061
*                                                                       01353261
***************************************************************         01401461
.* /* START OF SPECIFICATIONS ***************************************** 01450061
.*                                                                    * 01500061
.*01* MODULE-TYPE = SUPERVISOR GENERATION MACRO                       * 01550061
.*                                                                    * 01600061
.*01* DESCRIPTIVE NAME = QUIESCE RESUME AND TPA MIM/SIM PROCESSING    * 01650000
.*                                                                    * 01700061
.*01* FUNCTIONAL-DESCRIPTION =                                        * 01750061
.*    THIS MODULE IS THE CODE RUN THRU BY THE SERVICE TASK,           * 01788461
.*    IF THE CENTRAL WORK TO DO FLAG OF THIS TASK INDICATES           * 01826861
.*    THAT THERE POSSIBLY IS SOME WORK TO DO.                         * 01865200
.*    THIS FLAG IS ALWAYS SET ON, IF THE SUPERVISOR RECEIVES          * 01903661
.*    AN ATTENTION INTERRUPT. THE MODULE IS ENTERED AT LABEL          * 01942061
.*    QRBASE WITHOUT ANY SPECIAL PARAMETERS. ROUTINE QRBASE           * 01980461
.*    WILL ISSUE THE IO TO THE DEVICES ASKING FOR ATTENTION           * 02018861
.*    MESSAGES AND SEE IF THESE MESSAGES ARE RECONFIGURATION          * 02057261
.*    REQUEST RECORDS.                                                * 02064800
.*    IF THEY ARE NOT, THE ATTENTION INTERRUPT MIGHT BE PRESENTED     * 02072400
.*    BY A TPA TAPE DEVICE THAT WANTS TO HAVE PROCESSED A MEDIA       * 02080000
.*    OR SERVICE INFORMATION MESSAGE. IN SUCH A CASE THE ISSUED       * 02087600
.*    IO TO THE DEVICE HAD LED TO A UNIT CHECK WITH ASSOCIATED        * 02095200
.*    SENSE DATA CONTAINING THE MIM OR SIM WHICH HAS THEN TO BE       * 02102800
.*    HANDLED BY TAPE ERROR RECOVERY. THE ERP RETRY RECOVERY          * 02110400
.*    ACTION RETURNS A NO-MESSAGE MESSAGE AND ATTENTION               * 02122800
.*    PROCESSING IS COMPLETE.                                         * 02135200
.*    IN THE OTHER CASE, THE RECONFIGURATION REQUEST IS PASSED        * 02147600
.*    TO ROUTINE QRMAIN, WHICH HANDLES THEM COMPLETELY.               * 02160000
.*    A NUMBER OF MESSAGES MAY BE GENERATED IN THE COURSE OF          * 02172461
.*    THIS PROCESSING.                                                * 02210861
.*                                                                    * 02250061
.*    THE MODULE FIRST FINDS OUT, WHAT KIND OF REQUEST IT IS.         * 02300061
.*    THE FOLLOWING REQUESTS ARE HONORED.                             * 02350061
.*                                                                    * 02400061
.*      1.) QUIESCE (DEVICE OR) PATH                                  * 02450000
.*      2.) RESUME (DEVICE OR) PATH                                   * 02500000
.*      3.) (IDENTIFY SYSTEM)                                         * 02550000
.*                                                                    * 02600061
.*    THE STEPS THAT HAVE TO BE TAKEN TO PROCESS THE RECONFIG.        * 02700061
.*    REQUEST ARE DESCRIBED IN ARCHITECTURE AR-4903-01-POK.           * 02725061
.*                                                                    * 02750061
.*    BASICLY THE PROCESSING TAKES PLACES IN TWO STEPS. WE            * 02764061
.*    FIRST IDENTIFY THE SCOPE OF THE REQUEST, MEANING WHAT           * 02778061
.*    DEVICE PATH PAIRS ARE IMPACTED. THEN WE EXECUTE THE             * 02792061
.*    DESIRED OPERATION AND RETURN AN ANSWER TO THE CONTROL           * 02806061
.*    UNIT THAT INITIATED THE WHOLE PROCESSING.                       * 02820061
.*                                                                    * 02834061
.*    THE SCOPE IS RETURNED TO THE MAIN ROUTINE IN A LIST             * 02848061
.*    CONTAINING THE DEVICE PATH PAIRS. THIS LIST IS SET UP BY        * 02862061
.*    THE QRGSCOPE ROUTINE WHICH DOES THE FOLLOWING PROCESSING.       * 02876061
.*    THE PROCESSING IS BASED ON SO CALLED CONFIGURATIN DATA          * 02890061
.*    RECORDS. THESE ARE RECORDS THAT CONSIST OF 32 BYTE ENTRIES      * 02904061
.*    WHICH CAN EITHER BE NED (NODE ELEMENT DESCRIPTOR) OR NEQ        * 02918061
.*    (NODE ELEMENT QUALIFIER). THERE IS ONE GENERAL NEQ AT THE       * 02932061
.*    END OF EACH CONFIGURATION DATA RECORD. IN ADDITION THERE IS     * 02946061
.*    ONE NED WHICH IS FLAGGED TO BE THE SO CALLED TOKEN NED.         * 02960061
.*    THE CODE RELIES ON THESE PRECONDITIONS: THE GNEQ IS ALWAYS      * 02974061
.*    THE LAST ENTRY IN THE CONFIGURATION DATA RECORD AND THERE       * 02988061
.*    IS ALWAYS ONE AND ONLY ONE TOKEN NED IN THE CDR.                * 03002061
.*                                                                    * 03016061
.*    1.) WE HAVE TO FIND A RECORD CALLED THE BASE CONFIGURATION      * 03030061
.*        DATA RECORD. THIS RECORD IS A CONFIGURATION DATA RECORD.    * 03044061
.*        THE NEDS AND THE GNEQ OF IT WILL HELP IN DETERMINING        * 03058061
.*        THE REST OF THE SCOPE. IF THE SELECTOR BYTE IN THE          * 03072061
.*        RECONFIGURATION REQUEST IS ZERO, THE CDR FROM THE           * 03086061
.*        DEVICE PATH PAIR THAT WE READ THE RECONFIGURATION REQUEST   * 03100061
.*        RECORD FROM IS THE BASE CDR.                                * 03114061
.*        IF THE SELECTOR BYTE IS NOT ZERO HOWEVER WE HAVE TO         * 03128061
.*        READ ALL THE CDR'S THAT HAVE THE SAME TOKEN NED AND         * 03142061
.*        FIND OUT THE FIRST CDR THAT HAS THE SAME SELECTOR BYTE      * 03156061
.*        VALUE IN ITS GNEQ (GENERAL NEQ) .                           * 03170061
.*        THIS IS THE BASE CONFIGURATION DATA RECORD THEN.            * 03184061
.*                                                                    * 03200061
.*    2.) GIVEN THIS BASE CONFIGURATION DATA RECORD, A NUMBER         * 03250061
.*        OF RECORDS IS IDENTIFIED, WHICH IS CALLED THE               * 03300061
.*        SET OF RELATED CONFIGURATION RECORDS.                       * 03350061
.*        THE RELATED CONFIGURATION DATA RECORDS ARE ALL CDR'S        * 03380061
.*        THAT HAVE THE SAME TOKEN NED.                               * 03410061
.*        OUT OF THESE WE WILL FILTER THE SCOPE NOW. THERE IS         * 03440061
.*        A NED MAP AND AN NEQ MAP IN THE RECONFIGURATION             * 03470061
.*        REQUEST RECORD. THESE ARE THE TWO FIELDS THAT HELP          * 03500061
.*        TO IDENTIFY THE SET OF CONFIGURATION DATA RECORDS           * 03530061
.*        MEANT BY THE RECONFIGURATION REQUEST. THE DEVICE PATH       * 03560061
.*        PAIRS THAT THESE CDR'S HAVE BEEN READ FROM MAKE UP          * 03590061
.*        THE SCOPE OF THE REQUEST.                                   * 03620061
.*                                                                    * 03650061
.*        THERE IS A BIT IN SOME NEDS OF THE CDR THAT IDENTIFIES      * 03677761
.*        THESE NEDS AS RECONFIGURATION NED. EACH BIT IN THE NED      * 03705461
.*        MAP OF THE RECONFIGURATION REQUEST RECORD IS RELATED TO     * 03733161
.*        ONE OF THESE RECONFIGURATION NEDS. IF THE BIT IS ON,        * 03760861
.*        THE RECONFIGURATION NED HAS TO BE EQUAL TO THE              * 03788561
.*        CORRESPONDING RECONFIGURATION NED IN THE BASE               * 03816261
.*        CONFIGURATION DATA RECORD. IF THE BIT IS OFF THEY MAY       * 03843961
.*        BE DIFFERENT.                                               * 03871661
.*                                                                    * 03900061
.*        IF THE NEQ MAP IS NOT ZERO, EACH BIT REFERENCES ONE         * 03950061
.*        BYTE IN THE LAST 24 BYTES OF THE GENERAL NEQ IN THE         * 04000061
.*        BASE CONFIGURATION DATA RECORD. ALL THESE RECORDS           * 04050061
.*        ARE PART OF THE SUBSET, THAT SHARE THE SAME VALUES          * 04100061
.*        IN THE REFERENCED BYTES.                                    * 04150061
.*                                                                    * 04200061
.*        IF BOTH THE NED MAP AND THE NEQ MAP ARE ZERO, THERE         * 04250061
.*        IS A BUG IN THE CONTROL UNIT THE MAPS STEM FROM.            * 04300061
.*        WE RETURN AN ERROR INDICATION TO THE CONTROL UNIT.          * 04350061
.*                                                                    * 04450061
.*    IN ORDER TO SAVE TIME FOR READING CONFIGURATION DATA RECORDS    * 04500061
.*    THEY ARE KEPT IN AN AREA IN SYSTEM GETVIS. THEY ARE NOT         * 04550061
.*    KEPT PERMANENTLY BUT AT LEAST AS LONG AS THE SERVICE TASK       * 04600061
.*    IS PROCESSING ANY REMAINING RECONFIGURATION REQUEST RECORD.     * 04650061
.*    THE FORMAT OF THE TABLE IS MUCH SIMPLER THAN THAT OF MVS.       * 04700061
.*    BUT SUBROUTINE QRGETCDR CAN BE USED TO RETRIEVE RECORDS FROM    * 04750061
.*    EITHER THIS TABLE OR BY ISSUEING IO TO THE ACTUAL DEVICE/PATH.  * 04800061
.*                                                                    * 04841661
.*01* AMODE CONSIDERATIONS:                                           * 04883261
.*    THIS MACRO IS INCLUDED IN TWO PHASES TO SAVE SPACE BELOW THE    * 04924861
.*    16 MEGABYTE BOUNDARY. THE INVOCATION IN THE SUPERVISOR ONLY     * 04966461
.*    EXPANDS THE GLOBAL DATA AREA >QRSGLOB<. THIS WAS REQUIRED       * 05008061
.*    TO HAVE ALL CCBS AND CCW CHAINS BELOW 16 MB. ALL OTHER          * 05049661
.*    DATA ARE ALSO CONTAINED IN THIS AREA WHICH FACILITATES          * 05091261
.*    DEBUGGING.                                                      * 05132861
.*    THE INVOCATION IN PHASE $IJBCUIR EXPANDS THE CODE, THE          * 05174461
.*    STACK AREA AND A WRAP AROUND DEBUG AREA. THE CODE RUNS          * 05216061
.*    IN AMODE 31 ONLY. IF THE CODE DETECTS A FATAL PROCESSING        * 05257661
.*    ERROR IT DOES NOT FORCE HARD WAIT BUT USES A ROUTINE IN         * 05307600
.*    QRSGLOB TO RETURN TO THE SERVICE TASK MAINLINE PROCESSING.      * 05357600
.*    THE DATA IN THE STACK, GLOBAL AND WRAP AROUND DEBUG AREA        * 05424061
.*    REMAIN UNCHANGED FOR INSPECTION. CURRENTLY HELD GETVIS          * 05465661
.*    AREAS ARE FREED.                                                * 05515600
.*                                                                    * 06200000
*                                                                       06505761
*   GENERAL LAYOUT OF ONE ENTRY IN A CONFIGURATION DATA REC.            06507661
*                                                                       06509561
MAPCDR   DSECT                                                          06503861
CDRENTRY DS    0XL32                                                    06511461
CDRENFLG DS    X         CDR-ID                                         06513361
CDRENFUS EQU   X'00'                                                    06515261
CDRENFSN EQU   X'40'     SPECIFIC NEQ                                   06517161
CDRENFGN EQU   X'80'     GENERAL  NEQ                                   06519061
CDRENFND EQU   X'C0'     NED                                            06520961
CDRENFTO EQU   X'E0'     TOKEN NED                                      06522861
         DS    XL31      DATA BYTES                                     06524761
CDRENEXT DS    0H                                                       06526661
*                                                                       06528561
*                                                                       06532361
*   LAYOUT OF GENERAL NEQ IN CONFIGURATION DATA RECORD                  06534261
*                                                                       06536161
         ORG   CDRENTRY                                                 06530461
CDRGNEQ  DS    0XL32                                                    06538061
CDRGNFLG DS    X       FLAG BYTE                                        06539961
CDRGNSEL DS    X       RECORD SELECTOR BYTE                             06541861
CDRGNIID DS    XL2     INTERFACE ID                                     06543761
CDRGNATT DS    XL2     ATTRIBUTES                                       06545661
         DS    XL2     RESERVED BYTES, ZERO                             06547561
CDRGNQAL DS    0XL24   GNEQ QUALIFIER BYTES                             06549461
*                                                                       06551361
*                                                                       06555161
*   LAYOUT OF SPECIFIC NEQ IN CONFIGURATION DATA RECORD                 06557061
*                                                                       06558961
         ORG   CDRENTRY                                                 06553261
CDRSNEQ  DS    0XL32                                                    06560861
CDRSNFLG DS    X                                                        06562761
         DS    XL7                                                      06564661
CDRSNQAL DS    XL24    QUALIFIER BYTES OF SPECIFIC NEQ                  06566561
*                                                                       06568461
*                                                                       06572261
*   LAYOUT OF ONE NODE ELEMENT DESCRIPTOR                               06574161
*                                                                       06576061
         ORG   CDRENTRY                                                 06570361
CDRNED   DS    0XL32   COMPLETE NED                                     06577961
CDRNDFLG DS    X                                                        06579861
CDRNDFTO EQU   X'20'   THIS NED IS A TOKEN NED                          06581761
CDRNDFRC EQU   X'04'   THIS IS A RECONFIGURATION NED                    06583661
CDRNDTYP DS    X       TYPE OF ELEMENT DESCRIBED BY THIS NED            06585561
CDRNDTIO EQU   X'01'     NED BELONGS TO I/O DEVICE                      06587461
CDRNDTCU EQU   X'02'     NED BELONGS TO CONTROL UNIT                    06589361
CDRNDCLS DS    X                                                        06591261
         DS    X       RESERVED                                         06593161
&SYSECT  CSECT                                                          06595061
.*01* ENTRY-POINT = QRBASE                                              06596961
.*                                                                      06600061
.*01* NOTES = CHANGE ACTIVITY                                           06650061
.*    NEW MODULE FIRST RELEASE IS 2.1 (3990-6 CUIR)                     06700000
.*    ATTENTION PROCESSING FOR TPA TAPE DEVICES                @D61SDJK 06750000
.*                                                                      06900061
.**** END OF SPECIFICATIONS ******************************************* 09700061
         SPACE 3                                                        09750061
         DC    CL8'SGCUIR  '                                            09950061
         DC    CL8'&SYSDATE'      DATE                                  10000000
         DC    CL8'VSE 2.7 '      CHANGE ACTIVITY CODE                  10000100
*                                                                       10050061
***************************************************************         10100061
*  CODEBLOCK QRGSCOPE                                         *         10150061
*  FUNCTION: DETERMINE THE SCOPE FOR A GIVEN RECONFIGURATION  *         10200061
*    REQUEST RECORD (RRR).                                    *         10250061
*                                                             *         10300061
*  ON ENTRY: (RC,RE,RD = STANDARD USE, SEE ABOVE)             *         10350061
*    RA = QRSGLOB POINTER WITH INPUT AS PROVIDED BY SGSER     *         10400061
*    R4 = PUBX PTR OF DEVICE IN QUESTION                      *         10450061
*  ON EXIT:                                                   *         10500061
*    R2 = POINTS TO AN AREA IN GETVIS, WHICH IS MAPPED BY     *         10550061
*         THE DSECT QRSCDSCT. THE AREA HAS TO BE FREED BY     *         10600061
*         THE CALLER OF THIS SUBROUTINE.                      *         10650061
QRSCDSCT DSECT                                                          10700061
QRSCGVFL DS    0X   GETVIS INDICATOR.                                   10750061
QRSCGVIS EQU   X'80'  AREA IS NOT TAKEN FROM GETVIS                     10800061
QRSCLNG  DS    XL4  LENGTH OF THIS AREA                                 10850061
QRSCENTN DS    F    NUMBER OF ENTRIES THAT FOLLOW                       10900061
QRSCENTR DS    0F   PLACE OF FIRST ENTRY                                10950061
QRSCPU   DS    XL2  PUB INDEX OF DEVICE IN QUESTION                     11000061
QRSCPIDM DS    X    CHANNEL PATH ID. ZERO FOR DEVICE REQUESTS.          11050061
*                   FOR 370 MODE: X'4000' IF PRIMARY PATH,              11100061
*                                 X'8000' IF ALTERNATE PATH,            11150061
         DS    X    RESERVED                                            11200061
QRSCNEXT DS    0XL4 NEXT ENTRY                                          11250061
&SYSECT  CSECT                                                          11300061
         TITLE 'QUIESCE/RESUME PROCESSING  RECONFIG. SCOPE PROCESSING ' 68689361
         DC    C'QRGSCOPE'                                                      
         USING *,RC              SUBROUTINE BASE                                
         USING QRSGLOB,RA        GLOBAL WORK AREA BASE                          
         USING PBXADR,R4         PUBX BASE POINTER                              
*SGLINK  QRGSCOPE INPUT=(R4,RA,RC),OUTPUT=R9                                    
QRGSCOPE DS    0H                DETERMINE CUIR SCOPE                           
         BAL   R5,QRHARDWT       THATS THE END                                  
Q$NSCOPE BE    *-4               SAVE AREA STACK IS FULL                        
         LA    RD,16*4(,RD)      ADVANCE SAVE AREA POINTER                      
         ST    RE,RE*4(,RD)      SAVE RETURN REGISTER                           
         OI    QRST+04,X'80'     FOOTPRINT                                      
         LH    R3,QRIPUBND       GET PUB INDEX                          11966861
         SLR   R2,R2             CLEAR REGISTER                         12008561
         IC    R2,QRICPIDM       GET PATH MASK                          12050261
         STH   R3,QRSDVFLD+8     SAVE PUB INDEX                         12091961
         STC   R2,QRSDVFLD+10    SAVE PATH MASK                         12133661
         LR    R5,R4             COPY PUBX POINTER                      12175361
         SLR   RB,RB             INDICATE DONT HAVE CDR                 12217061
         CLI   16*4(RD),X'FF'    SET CONDITION CODE                             
         STM   R0,RF,16*4(RD)    SAVE REGISTERS                                 
         DC    0H'0',X'58C0',S(*+6) LOAD SUBROUTINE BASE                        
         BAL   RE,4(,RC)         GET CONFIGURATION DATA RECORD                  
         DC    AL4(QRGETCDR)     SUBROUTINE ADDRESS                             
*SGLINK  QRGETCDR INPUT=(R2,R3,R5,RB),OUTPUT=RB                                 
         B     QRSC0005       0  ERROR (NO CDR AVAILABLE)                       
         B     QRSC0010       4  OK RETURN                                      
QRSC0005 DS    0H                NO CDR WAS READ                                
         LM    R0,RF,0(RD)       RESTORE REGISTERS                              
         MVI   16*4(RD),X'00'    INDICATE SAVE AREA FREE                        
         B     8(,RE)            ERROR RETURN TO CALLER                         
         SPACE 1                                                                
QRSC0010 DS    0H                CDR WAS SUCCESSFULLY READ              12508961
         OI    QRST+04,X'40'     FOOTPRINT                                      
         LR    RF,RB             COPY CDR AREA ADDRESS                  12592361
         SLR   RB,RB             CLEAR REGISTER                         12634061
         CLI   QRIRRSEL,X'00'    IS SELECTOR BYTE OF RRR ZERO           12675761
         BE    QRSC1000          YES,                                   12717461
         OI    QRST+04,X'20'     FOOTPRINT                                      
         SLR   R3,R3             CLEAR REGISTER                         12800861
         BCTR  R3,0              MAKE IT NEGATIVE                       12842561
         SLR   R2,R2             RESET CHANNEL MASK BITS                12884261
QRSC0030 DS    0H                                                       12925961
         OI    QRST+04,X'10'     FOOTPRINT                                      
         CLI   16*4(RD),X'FF'    CC=00 WHEN NO MORE SAVE AREA                   
         STM   R0,RF,16*4(RD)    SAVE REGISTERS                                 
         DC    0H'0',X'58C0',S(*+6) LOAD QRGETNXT BASE ADDRESS                  
         BAL   RE,4(,RC)         GET NEXT RECORD                                
         DC    AL4(QRGETNXT)     SUBROUTINE BASE ADDRESS                        
*SGLINK  QRGETNXT INPUT=(R2,R3,R4,RF),OUTPUT=(R2,R3,R5,RB)                      
         B     QRSC0900        0 NO MORE CDR LEFT                               
         LA    R6,4(,RB)       4 SKIP HEADER BYTES                      12967661
         USING CDRENTRY,R6       CDRENTRY BASE                          13217861
QRSC0060 DS    0H                PROCESS ALL CDR'S                      13259561
         LA    R6,CDRENEXT       BUMP TO NEXT ENTRY                     13301261
         TM    CDRENFLG,CDRENFGN IS THIS THE GENERAL NEQ                13342961
         BNO   QRSC0060          NO,                                    13384661
         TM    CDRENFLG,CDRENFSN IS IT A SPECIFIC NEQ                   13426361
         BO    QRSC0060          YES, ITS NOT THE GENERAL NEQ           13468061
         OI    QRST+04,X'08'     FOOTPRINT                                      
         CLC   QRIRRSEL,CDRGNSEL IS SELECTOR BYTE THE SAME              13593161
         BNE   QRSC0030          NO,                                    13634861
         OI    QRST+04,X'04'     FOOTPRINT                                      
         DROP  R6                RELEASE CDRENTRY BASE                  13718261
         STH   R3,QRSDVFLD+8     SAVE PUB INDEX                         13759961
         STC   R2,QRSDVFLD+10    SAVE PATH MASK                         13801661
         LR    RF,RB             SAVE CDR ADDRESS                       13843361
         B     QRSC1000          WE ARE DONE                            13885061
QRSC0900 MVI   QRERRIND,QRERR#01 NO MORE CDR TO PROCESS                 13968461
         LM    R0,RF,0(RD)       RESTORE CALLERS REGISTERS                      
         MVI   16*4(RD),X'00'    INDICATE SAVE AREA AVAILABLE                   
         B     8(,RE)            TAKE ERROR RETURN                              
         SPACE 1                                                                
QRSC1000 DS    0H                SELECTOR BYTE WAS ZERO                 14051861
         OI    QRST+04,X'02'     FOOTPRINT                                      
         STH   R3,QRBASCDX       BASE CDR PUBINDEX                              
         STC   R2,QRBASCDC       BASE CDR CHPID                                 
         CLI   16*4(RD),X'FF'    CC=00 NO MORE SAVE AREA                        
         STM   R0,RF,16*4(RD)    SAVE REGISTERS                                 
         DC    0H'0',X'58C0',S(*+6) LOAD QRSTRACE BASE ADDRESS                  
         BAL   RE,4(,RC)         SET UP A TYPE-2 ENTRY                          
         DC    AL4(QRSTRACE)     SUBROUTINE BASE ADDRESS                        
         DC    AL4(2)            TRACE ENTRY TYPE-2                             
         CLI   QRIRRCOD,QRIRRCQD IS DEVICE TO BE QUIESCED                       
         BE    QRSC1010          YES,                                           
         CLI   QRIRRCOD,QRIRRCRD IS DEVICE TO BE RESUMED                        
         BNE   QRSC2000          NO,                                            
QRSC1010 DS    0H                DEVICE QUIESCE PROCESSING              14468861
         OI    QRST+04,X'01'     FOOTPRINT                                      
         SLR   R0,R0             CLEAR REGISTER                                 
         ICM   R0,8,QRIRRNED     GET ASSOCIATED NED                             
         BZ    QRSC2000          THERE IS NONE                                  
         OC    QRIRRNEQ,QRIRRNEQ IS THE NEQ MAP IS ZERO                         
         BNZ   QRSC2000          NO,                                            
         OI    QRST+05,X'80'     FOOTPRINT                                      
         LA    R5,1              RESET BIT COUNTER                              
         B     QRSC1040          JOIN MAIN PATH                                 
QRSC1020 SLL   R0,1              SHIFT NED INFO                         14927561
         LA    R5,1(,R5)         ADJUST BIT COUNT                       14969261
QRSC1040 LTR   R0,R0             IS THIS BIT ON                         15010961
         BNM   QRSC1020          NO                                     15052661
         SLL   R0,1              SHIFT OUT THIS BIT                     15136061
         LTR   R0,R0             WAS THIS THE ONLY BIT                  15177761
         BNZ   QRSC2000          NO,                                    15219461
         OI    QRST+05,X'40'     FOOTPRINT                                      
         LA    R7,4(,RF)         PREVIOUS CDRENTRY ADDRESS                      
         USING CDRENTRY,R7       CDRENTRY BASE POINTER                          
         B     QRSC1120          FIRST TIME THROUGH                             
QRSC1100 LA    R7,CDRENEXT       BUMP TO NEXT ENTRY                             
QRSC1120 OI    QRST+05,X'20'     FOOTPRINT                                      
         TM    CDRENFLG,CDRENFND IS THIS A NED                                  
         BO    QRSC1140          YES,                                           
         TM    CDRENFLG,CDRENFGN IS IT THE GENERAL NEQ                          
         BNO   QRSC1100          NO,                                            
         OI    QRST+05,X'10'     FOOTPRINT                                      
         MVI   QRERRIND,QRERR#02 SET ERROR INDICATOR                            
         LM    R0,RF,0(RD)       RESTORE CALLERS REGISTERS                      
         MVI   16*4(RD),X'00'    INDICATE WORK AREA FREE                        
         B     8(,RE)            TAKE ERROR RETURN                              
QRSC1140 DS    0H                NED FOUND PROCESSING                   15803261
         TM    CDRNDFLG,CDRNDFRC IS IT A RECONFIGURATION NED                    
         BNO   QRSC1100          NO,                                            
         BCT   R5,QRSC1100       CHECK NEXT NED                                 
         OI    QRST+05,X'08'     FOOTPRINT                                      
         CLI   CDRNDTYP,CDRNDTIO IS THIS A DEVICE TYPE NED                      
         BNE   QRSC2000          NO,                                            
         OI    QRST+05,X'04'     FOOTPRINT                                      
         LA    R9,QRSDVFLD       SET ADDRESS POINTER                            
         ST    R9,R9*4(,RD)      SAVE ADDRESS FOR CALLER                        
         LM    R0,RF,0(RD)       RESTORE CALLERS REGISTERS                      
         MVI   16*4(RD),X'00'    FREE SAVE AREA                                 
         B     4(,RE)            RETURN TO CALLER                               
         DROP  R7                RELEASE CDRENTRY BASE                          
*                                                                       16428761
*  LENGTH OF GETVIS FOR SCOPE LIST IS NUMBER OF POSSIBLE DEV.           16470461
*  ON A CONTROL UNIT X NUMBER OF PATHS X LENGTH OF ENTRY +              16512161
*  LENGTH OF SCOPE LIST HEADER.                                         16553861
*                                                                       16595561
QRSC2000 DS    0H                GET US THE REQUIRED GETVIS             16387061
         LR    R9,RF             PRESERVE BASE CDR ADDRESS              16637261
*HERE WE MAY HAVE TO SUPPORT MORE DEVICES                                       
         LA    R0,64*4*8+8       LENGTH OF REQUIRED GETVIS              16678961
         GETVIS ADDRESS=(1),LENGTH=(0),LOC=ANY,SVA=YES,                X16762361