         MACRO                                                          00010000
&NAME    SGDSK &SUBJ,&CODE=,&OUTPUT=,&I=,&O=,&W=,&E0=,&E4=,&NR=         00020000
.*                                                             @DERPDGL 00030016
         GBLB  &BGDEBUG         DEBUG OPTION                   @D35DDDK 00040000
         GBLB  &SGDSK           PRINT CONTROL SWITCH           @D37ADDK 00050000
         GBLB  &VSE260          RELEASE CONTROLSWITCH          @D66CDAP 00060000
         GBLC  &SYSERR          GLOBAL SETC FOR SYSERROR EXIT  @D37ADDK 00070016
.*                                                             @D61SDJK 00080000
         LCLC  &STRING,&TEST                                   @DERPDGL 00090016
         LCLC  &STRING1,&STRING2,&STRING3  FOR HANDLING OF     @DERPDGL 00100016
         LCLA  &COUNT1,&ROF,&X,&Y          INTERNAL CALLS.     @DERPDGL 00110016
         LCLC  &RX,&D,&LABEL,&LABSUF                           @DERPDGL 00120016
         LCLB  &DSKMSG                                         @DERPDGL 00130016
.*                                                             @DERPDGL 00140016
         ACTR  4000                                            @D51CDBH 00150016
.**************************************************************#SECURGL 00160016
    AIF  (T'&SUBJ EQ 'O').G000000       IF EXPANSION FOR TEST *#SECURGL 00170016
    AIF  ('&SUBJ'(1,1) NE '''').ERP0100 OF REGISTER CONVENTION*@D66ADAP 00180016
&TEST    SETC   '&SUBJ'(2,K'&SUBJ-2)    TAKE FIRST SUBJECT AND*#SECURGL 00190016
    AGO  .LUCCB                         GOTO FIRST TEST       *#SECURGL 00200016
.G000000 ANOP *************************************************#SECURGL 00210016
         AIF   (NOT &SGDSK).ERP0100                            @DA37123 00220016
         PRINT GEN                                             @D37ADDK 00230000
.ERP0100 ANOP                                                           00240016
         TITLE 'DOS SUPERVISOR    SGDSK    DISK ERROR RECOVERY ROUTINE' 00250000
.*                                                                      00260000
.*/**********************************************************           00270000
.*                                                          *  @D31TDRH 00280000
.*      IBM VIRTUAL STORAGE EXTENDED  (VSE)                 *  @D31TDRH 00290000
.*      COMPONENT: 5686-066-06                              *  @D61ADJK 00300016
.* @@CPY                                                    *  @D31TDRH 00310016
.*      LICENSED MATERIALS - PROPERTY OF IBM                *  @D31TDRH 00320016
.*      THIS MACRO IS "RESTRICTED MATERIALS OF IBM"         *  @D52VDGL 00330016
.*      5686-066 (C) COPYRIGHT IBM CORP. 1979, 2001         *  @D66CDAP 00340000
.*      SEE COPYRIGHT INSTRUCTIONS                          *  @D31TDRH 00350016
.*                                                          *  @D31TDRH 00360000
.************************************************************/          00370000
.*                                                                      00380000
.*                                                                      00390016
.* /* START OF SPECIFICATIONS ***************************************** 00400000
.*                                                                      00410000
.*01* MODULE TYPE = SYSTEM GENERATION MACRO                             00420000
.*                                                                      00430000
.*01* DESCRIPTIVE NAME = RESIDENT DISK ERP                              00440000
.*                                                                      00450016
.*01* NOTES                                                             00460000
.*                                                                      00470016
.* THE SGDSK MACRO IS DESIGNED TO BE INVOKED BY THE SUPERVISOR @D51TDPM 00480016
.* GENERATION CODE, I.E. AS PART OF THE REGULAR VSE SUPERVISOR.@D51TDPM 00490016
.* IT IS ALSO INVOKED BY THE STANDALONE SUPERVISOR CODE.       @D51TDPM 00500016
.* EXCEPT FOR SOME CLEARLY MARKED AREAS IN SGDSK, NO DESIGN    @D51TDPM 00510016
.* CONSIDERATION IS MADE BY SGDSK FOR THE STANDALONE SUPERVISOR@D51TDPM 00520016
.* INVOCATION.  TO MAKE USE OF SGDSK, THE STANDALONE SUPERVISOR@D51TDPM 00530016
.* MUST ADEQUATELY SIMULATE THE REGULAR SUPERVISOR.  FUTURE    @D51TDPM 00540016
.* CHANGES TO SGDSK MAY MAKE CHANGES TO THE STANDALONE         @D51TDPM 00550016
.* SUPERVISOR NECESSARY.                                       @D51TDPM 00560016
.*                                                                      00570016
.*                                                                      00580016
.*02* CHANGE ACTIVITY:                                                  00590000
.*    MSG0P18I SEEK ADDR INCORRECT, WITH CMD REJ ON SEEK CMD   @DA32611 00600000
.*    ASYNCHRONOUS ERROR LOGGING FOR SYSTEM TASK ERRORS        @D14CTJF 00610000
.*    SOFT WAIT AFTER SYSTEM TASK DETECTED I/O ERROR           @DMJ0062 00620000
.*    INCORRECT HANDLING OF CCW COUNT AND RESIDUAL COUNT       @DMJ0131 00630000
.*    SOFT WAIT AFTER SYSTEM TASK INTERVENTION REQUIRED        @DMN0306 00640000
.*    SYSTEM LOOP WHEN RUNNING IN REDISPLAY MODE (KKJ0201)     @DA33591 00650000
.*    LOST DATA/ERROR ON RECOVERY ON FBA                       @DA33561 00660000
.*    WAITFFF WHEN RETRY OF FAILING CHANNEL PROGRAM DO TO      @DA33722 00670000
.*          R9 BEING CLOBBERED IN DERID010                     @DA33722 00680000
.*    NEW DEVICE SUPPORT                                       @D21BTJF 00690000
.*    SEEK HEAD ON ALTERNATE TRACK OF D/T3340 NRF. CONDITION   @DA34417 00700000
.*    RUNNING IN 370 MODE, INCORROUT WHEN DATA CHECK ON D/T3370@DA34768 00710000
.*    WAITFFF AFTER CORRECTABLE DATA CHK WITH EXCP-REAL REQUEST@DA35162 00720000
.*    PERMANENT ERROR ON CKD AFTER CORRECTABLE DATA CK ON FBA  @DA35175 00730000
.*    WAITFFF BECAUSE OF DERIDAL TOO SHORT                     @DA35245 00740000
.*    TEMPORARY ERRORS RECORDED AS PERMANENT ON SYSREC         @DA35642 00750000
.*    MSG0P17I FILE PROTECT WHEN SWITCHING FROM ALTERNATE      @DA34685 00760000
.*      TRACK BACK TO PRIMARY ON D/T3344                       @DA34685 00770000
.*    INSURE ADDRESSABILITY FOR USER CCB FOR MODE=370          @DA35675 00780000
.*    PREVENT LOGGING NORMAL INTV. REQ. ON D/T 3340            @DA35679 00790000
.*    NEW DEVICE SUPPORT                                       @D21KTJF 00800000
.*    MSG0P20I WAS ISSUED BUT  ENVIROMENTAL DATA PRESENT       @DA36348 00810000
.*    MSGK205I RC=24 AFTER CORRECTABLE DATA CHECK ON D/T3370   @DA36364 00820000
.*    NEW DEVICE SUPPORT                                       @D21OTJF 00830000
.*    SOFTWAIT ERP FETCHBND AND DIR WAITBND                    @DA37065 00840000
.*    DASD ERP NOT COMPLETED                                   @DA37004 00850000
.*    INCORRECT SEEK ADDR IN MSG, WITH CMD REJ ON SEEK CMD     @DA37123 00860000
.*    ASYNCHRONEOUS LOGGING OF HCF ERRORS                      @DA37115 00870000
.*    NEW DEVICE SUPPORT    (SPE DA37156)                      @D21LTBH 00880000
.*    PASS ERROR SENSE TO SVT TASK ON DISASTER ERROR           @DA37368 00890000
.*    ISSUE MSG0P19I UNDET ERR FOR A UC WITH UNEXPECTED SENSE  @DA37572 00900000
.*    DO NOT LOG RESET NOTIFICATION (FORMAT 0 MSG 8)           @DA37503 00910000
.*    SHOULD BE NO MSG NO LOG IF DATACHECK WITH MULTIPLE READ  @DA39632 00920016
.*    06/01/89    RELEASE 4.1.0                                @D31TDRH 00930000
.*    07/15/90    RELEASE 4.1.2                                @D31HMRH 00940016
.*    12/15/90    RELEASE 5.1.0                                @D51CDBH 00950016
.*    09/15/91    RELEASE 5.1.1                                @D51TDPM 00960016
.*    HARDWAIT FF9 AFTER A CORRECTABLE DATA CHECK ON PAGEIN I/O@DA40798 00970016
.*    HARDWAIT FFF DUE TO A WRONG REGISTER SPECIFICATION       @DA40705 00980016
.*    DERNXTCW IS SET WITH REAL ADDRESS INSTEAD OF VIRTUAL     @DA40861 00990016
.*    WRONG CCW CHAIN IS ISSUED AFTER A CORRECTABLE DATA CHECK @DA40880 01000016
.*    IN DERD7IO IF THERE IS A TIC BETWEEN A READ COMMAND THAT @DA41136 01010016
.*      HAD A CORRECTABLE DATA CHECK AND THE NEXT COMMAND THAT @DA41136 01020016
.*      IS A READ COUNT, THEN ANOTHER READ COUNT IS INSERTED,  @DA41136 01030016
.*      RESULTING IN THE LOSS OF ONE RECORD                    @DA41136 01040016
.*    END OF CYLINDER NOT POSTED TO USER, IF IT OCCURED IN     @DA41155 01050016
.*      A RETRY OPERATION FOR A RECOVERABLE ERROR CONDITION    @DA41155 01060016
.*      ONLY THE HIGHEST PRIORITY ERROR CONDITION IS POSTED    @DA41155 01070016
.*      AND NOT THE LAST ONE, WHICH CAME WITH A SUCCESSFUL     @DA41155 01080016
.*      RETRY OPERATION.                                       @DA41155 01090016
.*    DERGFCCW SCANS TO OBTAIN A FAILING COMMAND CCW FOR THE   @DA41099 01100016
.*      FAILING CCW IN THE CSW. BUT WITH ALL CONTROL UNITS THE @DA41099 01110016
.*      CCW ADDRESS IN THE CCW IS THAT OF THE FAILING COMMAND  @DA41099 01120016
.*      CCW.                                                   @DA41099 01130016
.*    DERECF DOES A CORRECTIVE ACTION FOR SOME DATA CHECKS     @DA41381 01140016
.*      AND HAS TO DIFFERENTIATE BETWEEN NORMAL AND PAGE       @DA41381 01150016
.*      MANAGER I/O ERRORS. IN THESE IT ASSUMES, THAT THE      @DA41381 01160016
.*      IDAL BIT IS ALWAYS SET, WHICH IS NOT TRUE FOR 370      @DA41381 01170016
.*      SUPERVISORS.                                           @DA41381 01180016
.*    DERWKCSW IS SETUP FOR LOW CORE, USING JUST THE FIRST     @DA41424 01190016
.*      BYTE OF THE CCBCNT, AND NOT 2 BYTES AS IT SHOULD       @DA41424 01200016
.*    DERECF AND DERDC67 DO SOME WRONG CALCULATION OF THE      @DA41424 01210016
.*      RESIDUAL COUNT OF A CORRECTABLE DATA CHECK. THE        @DA41424 01220016
.*      VALUE AND THE CORRESPONDING CCW ADDRESS MUST BE STORED @DA41424 01230016
.*      TO THE CCBCNT AND CCBCSWW SINCE THE CHANNEL DID        @DA41424 01240016
.*      CHANNEL COMMAND RETRY.                                 @DA41424 01250016
.*    DERECKD DID NOT PURGE THE REGISTER R5 IN CASE THE        @DA42496 01260016
.*      SIMPLE PROGRAM ACTION CODE WAS NOT KNOWN. HENCE        @DA42496 01270016
.*      THE DERCRRA3 (CCB POSTING INFORMATION) WAS SET TO      @DA42496 01280016
.*      THE VALUE OF THIS SIMPLE PROGRAM ACTION CODE.          @DA42496 01290016
.*      ALTHOUGH THE IO WAS FINALLY RECOVERED WE POSTED        @DA42496 01300016
.*      AN INVALID TRACK FORMAT WRITE AND VSAM FINISHED        @DA42496 01310016
.*      A USER IO WITH AN ERROR INDICATION.                    @DA42496 01320016
.*    DERBUMP RESTORED A DESTROYED OLD CCW ADDRESS FROM        @DA42600 01330016
.*      REGISTER R5 WHEN NEW AND OLD CCW ADDRESS ARE NOT ON    @DA42600 01340016
.*      THE SAME PAGE IN STORAGE. THE OLD CCW ADDRESS IS NOW   @DA42600 01350016
.*      SAVED IN REGISTER R7 AND CAN BE RESTORED FROM THERE    @DA42600 01360016
.*      WHEN NEEDED.                                           @DA42600 01370016
.*    DERFNM00 FINAL MESSAGING ROUTINE SETS ON THE RECONLY     @DA42666 01380016
.*      BIT FOR A MESSAGE DEVICE ERROR ENTRY THAT IS PASSED    @DA42666 01390016
.*      TO SGERP DSKEXIT. WHEN DSK LEAVES TO DSKEXIT WITH      @DA42666 01400016
.*      IGNORE THE QEDERR BIT IN THE PUB IS NOT RESET SINCE    @DA42666 01410016
.*      SGERP SEES THE DEVICE ERROR ENTRY FROM PBXERBLK STILL  @DA42666 01420016
.*      IN USE. LATER WHEN THE ERP TASK IS BACK FROM WORK THE  @DA42666 01430016
.*      BIT IS STILL NOT RESET BECAUSE OF THE RECONLY BIT.     @DA42666 01440016
.*      SYSTEM ENDS UP IN A SOFTWAIT CONDITION.                @DA42666 01450016
.*      IN ADDITION DERFAST DID NOT AVOID FAST PATH FOR SOME   @DA42666 01460016
.*      STATE CHANGE PENDING CONDITION SINCE IT ASKED FOR THE  @DA42666 01470016
.*      1D IN BYTE 22 AND NOT 25 AS IT SHOULD.                 @DA42666 01480016
.*      MOREOVER THE NO RECORD FOUND FOR AN ECKD DEVICE WAS    @DA42666 01490016
.*      NOT LEAD TO THE FAST PATH SINCE HERE THE BYTE 25 WAS   @DA42666 01500016
.*      INSPECTED FOR 06 AND NOT BYTE 22                       @DA42666 01510016
.*    DERSCAN LOOKS AT THE DATA CHAINING INDICATION IN A       @DA42922 01520016
.*      TIC, THAT BELONGS TO THE LINKAGE BETWEEN COPY BLOCKS   @DA42922 01530016
.*      (XA8 TIC) IF THIS TIC IS REACHED BY SKIPPING THE TIC   @DA42922 01540016
.*      BEHIND A STATUS MODIFIER COMMAND. THE EFFECT WAS       @DA42922 01550016
.*      DETECTED IN PROCESSING A CORRECTABLE DATA CHECK,       @DA42922 01560016
.*      WHICH SHOWED A RECOVERY ERROR MESSAGE CAUSED BY THE    @DA42922 01570016
.*      FACT THAT DERDC67 ASSUMED THE FAILING CCW TO BE        @DA42922 01580016
.*      DIFFERENT FROM THE FAILING COMMAND CCW. THE MESSAGE    @DA42922 01590016
.*      SHOWED A CCSW= OF A8.... AS COMMAND CODE.              @DA42922 01600016
.*    IN ADDITION DERSCAN COULD BE CALLED FOR SCANNING OF      @DA42922 01610016
.*      A NON-EXISTANT CCW CHAIN IN CASE OF AN UNSOLICITED     @DA42922 01620016
.*      INTERRUPT FROM AN FBA DEVICE. THE INVALID ADDRESS      @DA42922 01630016
.*      IS NOT NOTICED BY VIRTAD AND IT FAILS WITH HARDWAIT..  @DA42922 01640016
.*      THIS IS ALSO FIXED IN VIRTAD CODE.                     @DA42922 01650016
.*    SINCE DERSIPMT IS RECORDED WITH DERRA1OR EREP GIVES      @DA42922 01660016
.*      ERROR MESSAGES ABOUT UNIDENTIFIED SENSE DATA.          @DA42922 01670016
.*    FIX AN EREP BUG WHICH INDICATES UNKNOWN TYPE OF DEVICE   @DA42853 01680016
.*      FOR SENSE DATA WHERE RECORDING IS NOT RECOMMENDED IN   @DA42853 01690016
.*      HARDWARE MANUALS.                                      @DA42853 01700016
.*    IN CASE OF A CORRECTABLE DATA CHECK THE CSW IS PRESENTED @DA42853 01710016
.*      WITH A MERE UNIT CHECK BIT AND NOTHING ELSE IN THE     @DA42853 01720016
.*      STATUS. IF NOW THE UNIT CHECK BIT IS SET OFF AFTER     @DA42853 01730016
.*      A SUCCESSFUL DATA CORRECTION OPERATION AND THE DATA    @DA42853 01740016
.*      ARE COMPLETE (THE CHAIN DOES NOT HAVE TO BE CONTINUED) @DA42853 01750016
.*      THE STATUS THAT IS POSTED BACK TO THE USER IS A SIMPLE @DA42853 01760016
.*      ZERO. THERE IS A PRODUCT FROM CA CALLED DATACOMM/DB    @DA42853 01770016
.*      WHICH LOOKS FOR CHANNEL END DEVICE END AND CONSIDERS   @DA42853 01780016
.*      EVERYTHING ELSE AN ERROR. THEY COULD NOT LIVE WITH     @DA42853 01790016
.*      THIS. SO WE NOW INSERT A CHANNEL END DEVICE END        @DA42853 01800016
.*      IF THE RESULT IS ZERO AFTER SETTING OFF UNIT CHECK.    @DA42853 01810016
.*    FOR A 3880 MODEL 23 AND 3380 MODEL K DISK THE ERROR      @DA42840 01820016
.*      CORRECTION OF A CORRECTABLE DATA CHECK IS NORMALLY DONE@DA42840 01830016
.*      IN THE CONTROL UNIT ITSELF. WHEN THE RECORD HAS BEEN   @DA42840 01840016
.*      READ INTO THE CONTROL UNIT INTERNAL STORAGE, IT LOOKS  @DA42840 01850016
.*      AT THE ECC BYTES AT THE END AND FIXES THE DATA.        @DA42840 01860016
.*      IT THEN SIGNALS CHANNEL COMMAND RETRY TO THE CHANNEL   @DA42840 01870016
.*      AND DELIVERS THE CORRECTED DATA. ONLY FOR PCI FETCH    @DA42840 01880016
.*      MODE IT WOULD RAISE A CORRECTABLE DATA CHECK SINCE THE @DA42840 01890016
.*      CHANNEL MAY HAVE LEFT THE DATA TO A USER PROGRAM       @DA42840 01900016
.*      ALREADY. NOW WITH 5E READ MULTIPLE COUNT KEY DATA      @DA42840 01910016
.*      THIS INTERNAL CORRECTION DOES NOT WORK. HENCE SENSE    @DA42840 01920016
.*      DATA ARE PRESENTED TO THE HOST THAT SHOW A PLAIN       @DA42840 01930016
.*      DATA CHECK (DERECD11) WITH BYTE 7 X53, MEANING         @DA42840 01940016
.*      CORRECTION INFORMATION WOULD HAVE BEEN THERE. THERE IS @DA42840 01950016
.*      A RECOVERY ACTION FOR THIS WHICH IS NOT DESCRIBED IN   @DA42840 01960016
.*      THE STORAGE CONTROLLER MANUAL: SPLIT UP THE 5E         @DA42840 01970016
.*      COMMAND INTO A SEQUENCE OF 1E COMMANDS. FOR THESE      @DA42840 01980016
.*      THE INTERNAL CORRECTION IS DONE AND THE SEQUENCE ENDS  @DA42840 01990016
.*      WITHOUT A UNIT CHECK. WE HAVE NOT IMPLEMENTED THIS     @DA42840 02000016
.*      KIND OF RECOVERY, BUT FCOPY HAS. THIS APAR JUST        @DA42840 02010016
.*      SUPPRESSES THE MESSAGE ABOUT THE UNSUCCESSFUL RECOVERY @DA42840 02020016
.*      IN CASE THE CALLER HAD ACCUNRIO ON. THIS SUPPRESSION   @DA42840 02030016
.*      WAS ASKED FOR BY A NUMBER OF US CE'S AND SE'S SINCE    @DA42840 02040016
.*      THE MESSAGE WOULD OCCUR ALMOST EVERY TIME A FCOPY      @DA42840 02050016
.*      RUN WAS DONE TO THIS KIND OF HARDWARE. ALTHOUGH THE    @DA42840 02060016
.*      MESSAGE WAS OF TYPE INFORMATION POSTED, IT LEAD TO     @DA42840 02070016
.*      AN UNREASONABLE NUMBER OF NIGHTLY PHONECALLS WITH      @DA42840 02080016
.*      CUSTOMERS.                                             @DA42840 02090016
.*    HARDWAIT IN DERFAST AT LABEL DERFI40 COULD OCCUR SINCE   @DA42840 02100016
.*      THE DSK TASK WAS RUNNING FOR ITSELF AND STILL ACCESSED @DA42840 02110016
.*      THE (RECONLY-) USERS CCB. SINCE THE USER SPACE WAS NOT @DA42840 02120016
.*      SET UP, AND SOMEONE ELSE BUT THE USER HAD BEEN         @DA42840 02130016
.*      DISPATCHED IN BETWEEN WE GRAB INTO THE WRONG SPACE.    @DA42840 02140016
.*      RESULT IS HARDWAIT FFF                                 @DA42840 02150016
.*    AVOID POSSIBLE HARDWAIT FOR FBA DEVICES WITH UNSOLICITED @DA42992 02160016
.*      INTERRUPT AND UNIT CHECK AND WITH A SPACE SWITCH       @DA42992 02170016
.*      BETWEEN THE OCCURRENCE OF THIS UNIT CHECK AND THE      @DA42992 02180016
.*      HANDLING OF IT IN SGDSK. DER17000 MUST NOT SCAN FOR    @DA42992 02190016
.*      LAST USED LOCATE BLOCK IF THERE IS NO USER CCB.        @DA42992 02200016
.*    WHEN AN ERROR CONDITION COULD BE RECOVERED BY RETRIES    @DA42963 02210016
.*      AFTER PATH SWITCHING, THE PATH ON WHICH THE ERROR      @DA42963 02220016
.*      OCCURRED IS NOT TAKEN DOWN ANYMORE.                    @DA42963 02230016
.*    IF USER CCB HAS SET DASDRRDC, NO MESSAGING IS DONE IN    @DA42963 02240000
.*      CASE OF UNSUCCESSFUL RECOVERY OF A FORMAT 5 DATA       @DA42963 02250016
.*      CHECK. THIS IS AN ENHANCEMENT OF DY42840, THAT MADE    @DA42963 02260016
.*      MESSAGING DEPENDENT ON THE ACCUNRIO BIT AND ON THE     @DA42963 02270016
.*      DEVICE AND CONTROL UNIT TYPE. A FCOPY APAR WILL ENSURE @DA42963 02280016
.*      THAT FCOPY SETS ON DASDRRDC FOR ALL ITS I/O REQUESTS.  @DA42963 02290000
.*    IF WE SET UP A RECOVERY CCW CHAIN WE MUST NOT ONLY CHECK @DA43137 02300016
.*      FOR SEEK, BUT SEEK CYLINDER COMMANDS TOO               @DA43137 02310016
.*    IN CASE OF ERROR CONDITION DERECFLY, ONLY ONE TIME       @DA43137 02320016
.*      MESSAGING IS DONE AFTER UNSUCCESSFUL RECOVERY INSTEAD  @DA43137 02330016
.*      OF IMMEDIATE MESSAGING.                                @DA43137 02340016
.*    IN CASE OF A ICKDSF RECONLY REQUEST, SGDSK IS LEFT TO    @DA43182 02350016
.*      THE DISPATCHER EXIT W/O RECORDING. THERE WAS A CUSTOMER@DA43182 02360016
.*      RUNNING ICKDSF ANALYZE EVERY WEEK AND IT KEPT RECORDING@DA43182 02370016
.*      THINGS IN THE RECORDER FILE FOR TRACKS HE NEVER USED.  @DA43182 02380016
.*      ICKDSF SAID IT WOULD ANALYZE ITS ERRORS ITSELF AND     @DA43182 02390016
.*      GIVE APPROPRIATE HINTS. HENCE IT WOULD NOT BE REQUIRED @DA43182 02400016
.*      TO FLOOD THE USERS RECORDER FILE FOR THESE RUNS.       @DA43182 02410016
.*    11/05/93    RELEASE 6.1.0                                @D61ADJK 02420016
.*      NEW DEVICE SUPPORT FOR 3990-6/7 AND 3390-9.            @D61ADJK 02430016
.*      3350 SUPPORT IS DROPPED.                               @D61ADJK 02440016
.*      ERP TASK WILL WRITE SUBSYSTEM MESSAGE IN CASE OF       @D61ADJK 02450016
.*      SUCCESSFUL SUSPENSION OF A DUPLEX PAIR.                @D61ADJK 02460016
.*      IF USER CCB HAS SET THE CHNBIT, THE CHANNEL PROGRAM    @D61ADJK 02470016
.*      CAN'T BE SCANNED AND NO SEEK ARGUMENT IS RETRIEVED.    @D61ADJK 02480016
.*      VM INTERCEPT ERROR CONDITIONS IN ECKD AND 24+8 SENSE   @D61ADJK 02490016
.*      DATA FORMAT ARE NOW RECOGNIZED AND HANDLED PROPERLY.   @D61ADJK 02500016
.*      ERROR CONDITION PINNED DATA - INFORMATIONAL (DERECPDI) @D61ADJK 02510016
.*      IS NOW RECORDED AND THE USER'S CHANNEL PROGRAM IS      @D61ADJK 02520016
.*      SCANNED FOR THE LAST USED SEEK ADDRESS.                @D61ADJK 02530016
.*      INTRODUCE ERROR CLASSIFICATION CODE DERECFWI (DASD     @D61ADJK 02540016
.*      FAST WRITE INHIBITED) FOR 24+8 SENSE DATA FORMAT.      @D61ADJK 02550016
.*      ERROR CONDITION DERECIDF (INVALID TRACK FORMAT DURING  @D61ADJK 02560016
.*      STAGING OR DESTAGING) IS NOW RECOGNIZED AND HANDLED    @D61ADJK 02570016
.*      PROPERLY.                                              @D61ADJK 02580016
.*    THE RETRY LIMIT FOR MACHINE STATE EXCEPTIONS IS          @DA43510 02590000
.*      INCREASED FROM 10 TO 255. RAMAC DASDS NEED SOME MORE   @DA43510 02600000
.*      TIME FOR DESTAGING A TRACK AND AFTER 10 RETRIES THIS   @DA43510 02610000
.*      PROCESS MIGHT NOT BE COMPLETED YET.                    @DA43510 02620000
.*    DERFAST MISINTERPRETS BYTE 12, BIT 2 IN IORB. IN CASE    @DA43585 02630000
.*      OF AN IRRECOVERABLE I/O ERROR, PROGRAMS USING AN IORB  @DA43585 02640000
.*      WITH THIS BIT SET WON'T BE CANCELLED.                  @DA43585 02650000
.*    ISSUE A SIM MESSAGE, IF MESSAGING IS REQUESTED IN SIM    @DA43984 02660000
.*      SENSE DATA BUT THE RECONLY BIT IS SET IN THE ORIGINAL  @DA43984 02670000
.*      ERROR ENTRY.                                           @DA43984 02680000
.*      ALLOW SGDSK I/O REQUESTS ONLY ON PATHES CONTAINED IN   @D61SDJK 02690000
.*      USER CCB PATH MASK.                                    @D61SDJK 02700000
.*      DON'T SET PUBCSFLG.OPINTV IN SUBROUTINES DERIRQ/DERDWI.@D61SDJK 02710000
.*      MAINTAIN SAVED LOCK MANAGER LOGICAL PATH MASK IN PUBX. @D61SDJK 02720000
.*    USER CCB BYTE 12, BIT 3 IS INTRODUCED AS 'RETURN INVALID @D61SDJK 02730000
.*      TRACK FORMAT WRITE' INDICATION. IF SET, AN INVALID     @D61SDJK 02740000
.*      TRACK FORMAT ERROR CONDITION WILL BE PASSED BACK TO    @D61SDJK 02750000
.*      THE USER AND NO ERROR MESSAGE WILL BE WRITTEN.         @D61SDJK 02760000
.*    MORE TASKS SUPPORT                                       @D66CDAP 02770016
.*    LCK-DEVICE RESET NOTIFICATION NOT PROPERLY RECOGNIZED    @DY46XXX 02771029
.*                                                                      02780016
.* ** END OF SPECIFICATIONS **************************************** */ 02790016
.*                                                                      02800016
.*                                                                      02810016
.*                                                                      02820016
*********************************************************************** 02830016
*                                                                     * 02840016
*                  RESIDENT ERROR RECOVERY PROCEDURE                  * 02850016
*                                                                     * 02860016
* FUNCTION                                                            * 02870016
*                                                                     * 02880016
*   THE FUNCTION OF THE RESIDENT DISK ERP IS TO RECOVER FROM          * 02890016
*   I/O ERRORS OCCURRING ON DIRECT ACCESS STORAGE DEVICES.            * 02900016
*                                                                     * 02910016
*   ALL DETAILS OF THE FUNCTION PROVIDED ARE DOCUMENTED IN            * 02920016
*   THE FOLLOWING:  FUNCTIONAL SPECIFICATION VSE/AF 5.1.1             * 02930016
*   DISK/TAPE ERP BY BRYAN HENDERSON.                                 * 02940016
*                                                                     * 02950000
* ENTRY POINTS                                                        * 02960000
*                                                                     * 02970000
*        DER0000                                                      * 02980000
*                                                                     * 02990000
* EXTERNAL REFERENCES                                                 * 03000000
*                                                                     * 03010000
*   THE FOLLOWING SUPERVISOR ROUTINES, NOT GENERATED BY SGDSK,        * 03020016
*   ARE USED TO ASSIST IN PROVIDING DASD ERP.  A BRIEF DESCRIPTION    * 03030016
*   OF WHAT FUNCTION EACH ROUTINE PROVIDES ACCOMPANIES ITS NAME.      * 03040016
*                                                                     * 03050000
*      INTEQPST    - USED TO QUEUE AN ERROR BLOCK FOR ASYNCHRONOUS    * 03060016
*                    PROCCESSING BY THE ERP TASK.                     * 03070016
*      GETDADR     - USED TO GET THE ADDRESS OF A BYTE OF DATA        * 03080016
*                    ASSOCIATED WITH A CCW.                           * 03090016
*      AVRFVCTE    - USED TO GET THE BLOCK SIZE OF AN FBA DEVICE.     * 03100016
*      VIRTAD      - USED TO VALIDATE AND/OR VIRTUALIZE A GIVEN       * 03110016
*                    ADDRESS.                                         * 03120016
*                                                                     * 03130000
*   THE FOLLOWING SUPERVISOR SERVICES, NOT GENERATED BY SGDSK,        * 03140016
*   ARE USED TO ASSIST IN PROVIDING DASD ERP.  A BRIEF DESCRIPTION    * 03150016
*   OF WHAT EACH SERVICE IS USED FOR ACCOMPANIES THE NAME.            * 03160016
*                                                                     * 03170000
*      REALAD      - USED TO CONVERT A VIRTUAL ADDRESS TO A REAL      * 03180016
*                    ADDRESS.  THIS SERVICE IS ACCESSED THROUGH       * 03190016
*                    THE REALAD MACRO.                                * 03200016
*                                                                     * 03210000
*                                                                     * 03220000
* PROCESSING                                                          * 03230016
*                                                                     * 03240016
*    SGDSK IS PROCESSING ON A CHAIN OF DEVICE ERROR ENTRIES.          * 03250016
*    TESE DEVICE ERROR ENTRIES (MAPPED BY ERBLKADR DSECT)             * 03260016
*    MAY EITHER BELONG TO A PUBX (PBXERBLK) OR TO A TCB OF            * 03270016
*    A SYSTEM TASK.                                                   * 03280016
*    THE  CHAIN IS CHAINED FROM THE ERROR BLOCK AND CONTAINS          * 03290016
*    ONE OR MORE ENTRIES FOR ONE OR MORE DEVICES.                     * 03300016
*    SGDSK ALWAYS TAKES AN ERROR BLOCK OUT OF THE CHAIN AND           * 03310016
*    STARTS PROCESSING ON IT. FOR THIS PURPOSE IT COPIES THE          * 03320016
*    ERROR BLOCK INTO A PART OF ITS GLOBAL WORK AREA, CALLED          * 03330016
*    DERINWRK. HOWEVER THIS IS ONLY FOR CONVENIENCE AND THE           * 03340016
*    ACTIVE BIT ON THE ORIGINAL ERROR ENTRY IS NOT RESET.             * 03350016
*    AT THE END OF PROCESSING, THE ENTRY IS FILLED AGAIN              * 03360016
*    WITH THE DERINWRK INFORMATION AND WE WILL LEAVE WITH THIS        * 03370016
*    ORIGINAL ERROR ENTRY.                                            * 03380016
*    PROCESSING OF THE DEVICE ERROR ENTRY IS DONE IN A BIG            * 03390016
*    LOOP WHICH IN ALL CONTAINS THE FOLLOWING LOGIC:                  * 03400016
*                                                                     * 03410016
*          1.) IDENTIFY THE ERROR YOU HAD AND                         * 03420016
*              DECIDE WHAT RECOVERY AND RECORDING WILL BE DONE.       * 03430016
*          2.) DECIDE IF ITS A NEW ERROR WE ARE SEEING, IN ORDER      * 03440016
*              TO REINITIALIZE SOME VALUES. THE OLD ERROR IS          * 03450016
*              CONSIDERED OVERCOME, IF THE ERROR SYMPTOMS CHANGE      * 03460016
*              THE NEW GAME THEN IS WITH FRESH RETRY COUNTS AND       * 03470016
*              A NEW SET OF CHPIDS (CHANNEL PATHS TO THE DEVICE)      * 03480016
*              ALLOWED.                                               * 03490016
*          3.) DO THE RECOVERY.                                       * 03500016
*              IF THIS RECOVERY IS SUCCESSFUL LEAVE LOOP              * 03510016
*          4.) DO THE MESSAGING AND RECORDING FOR THE PRE-RECOVERY    * 03520016
*              ATTEMPT ERROR WHICH WE HAVE.                           * 03530016
*          5.) OBTAIN THE SENSE DATA (WE HAD USER WANTS SENSE ON)     * 03540016
*              GOTO 1.)                                               * 03550016
*                                                                     * 03560016
*    EVENTUALLY THE RECOVERY WILL BE COMPLETE AND SGDSK LEAVES        * 03570016
*    THE LOOP. NOW A NUMBER OF STEPS IS STILL TAKEN TO DO             * 03580016
*    SOME FINAL MESSAGING AND RECORDING. FURTHERMORE THE EXIT         * 03590016
*    IS DETERMINED AND SGDSK IS LEFT.                                 * 03600016
*    FOR EXITS SEE HEADING EXIT.                                      * 03610016
*                                                                     * 03620016
* GATING OF THE PUB                                                   * 03630016
*                                                                     * 03640016
*    NORMALLY THE PUB IS GATED AS QUEUED IN ERROR EVERY TIME AN       * 03650016
*    ERROR OCCURED ON THE DEVICE. THIS GATING IS ONLY RESET IF        * 03660016
*    DSKEXIT IS ENTERED BY DSK OR ERP TASK AND THE DEVICE             * 03670016
*    ERROR ENTRY THAT IS CHAINED FROM THE PUBX INDICATES, THAT        * 03680016
*    THERE IS NO ERROR KNOWN ON THIS DEVICE ANY MORE.                 * 03690016