         MACRO                                                          00050000
&NAME    SGETVIS &ERROR,           INVALID POSITIONAL PARAMETER@D14CDJB*00100000
               &ADDRESS=,          SPID OR GETVIS ADDRESS      @D14CDJB*00150000
               &LENGTH=,           LENGTH OF REQUESTED AREA    @D14CDJB*00200000
               &EXCREQ=NO,         EXCESSIVE REQUESTOR OPTION  @D14CDJB*00250000
               &PAGE=NO,           PAGE BOUNDARY OPTION        @D14CDJB*00300000
               &SPID=,             SUBPOOL SPECIFIED           @D14CDJB*00350000
               &SAVE=,             SAVE AREA SPECIFIED         @D14CDJB*00400000
               &PFIX=NO,           PFIX OPTION                 @D14CDJB*00450000
               &FTCHPR=,           FETCH PROTECTION REQUESTED  @D51IDMZ*00500000
               &SPACE=NO,          REQUEST FOR SPACE GETVIS    @D51IDMZ*00550000
               &SPCNTRL=NO,        INDEX CONTROLLED SUBPOOL    @D51IDMZ*00583352
               &LOC=RES,           DEFAULT LOC OPTION          @D52VDCS*00605552
               &PMSPACE=NO         DEFAULT IS PMR SPACE = NO   @D52VDMZ 00627752
         LCLB  &BLEXRQ             EXCESSIVE REQUESTOR INDIC.  @D14CDJB 00650000
         LCLB  &BLPAGE             PAGE BOUNDARY INDICATOR     @D14CDJB 00700000
         LCLB  &BLPLID             SUBPOOL INDICATOR           @D14CDJB 00750000
         LCLB  &BLPFIX             PFIX INDICATOR              @D14CDJB 00800000
         LCLB  &BLSAVE             SAVE INDICATOR              @D14CDJB 00850000
         LCLB  &BLFCHPR            FETCH PROTECTION INDICATOR  @D14CDJB 00900000
         LCLB  &BLSPCE             SPACE GETVIS INDICATOR      @D51IDMZ 00950000
         LCLB  &BLPMSP             PMR SPACE GETVIS INDICATION @D52VDMZ 00975052
         LCLB  &BLPKEY             PROTECT WITH PARTITION KEY  @D51IDMZ 01000000
         LCLB  &BLPX               PAGE CROSSING ALLOWED       @D51IDMZ 01050000
         LCLB  &BLSVA              SVA REQUEST                 @D51IDMZ 01100000
         LCLB  &BLLNGR             REGISTER NOTATION FOR LENGTH@D51IDMZ 01150000
         LCLB  &BLLNGV             VARIABLE NOTATION FOR LENGTH@D51IDMZ 01200000
         LCLB  &BLSPIR             REGISTER NOTATION FOR SPID  @D51IDMZ 01250000
         LCLB  &BLSPIV             VARIABLE NOTATION FOR SPID  @D51IDMZ 01300000
         LCLB  &BLSPCN             INDEX CONTROLLOD SUBPOOL    @D51IDMZ 01350000
         LCLB  &BLBEL              LOC = BELOW SPECIFIED       @D52VDCS 01366652
         LCLB  &BLANY              LOC = ANY SPECIFIED         @D52VDCS 01383252
         LCLC  &A                  INSTRUCTION MODIFIER        @D14CDJB 01400000
         LCLC  &SAVEAR             SAVE AREA ADDRESS           @D14CDJB 01450000
         LCLC  &SAVEPTR            SAVE AREA PTR               @D14CDJB 01500000
***************************************************************         01550000
.*       IBM DISK OPERATING SYSTEM                            *         01600000
*        SUPERVISOR - SGETVIS - 5686-032-06                   *@D51IDMZ 01650000
         AGO   .ZZZ                                           *         01700000
*        LICENSED MATERIALS - PROPERTY OF IBM                 *@D31UDMZ 01750000
*        THIS MACRO IS "RESTRICTED MATERIALS OF IBM"          *@D31UDMZ 01800000
*        5686-032 (C) COPYRIGHT IBM CORP. 1980, 1993          *@D52VDMZ 01850052
*        SEE COPYRIGHT INSTRUCTIONS                           *@D31UDMZ 01900000
.*                                                                      01950000
.*   CHANGE ACTIVITIES                                                  02000000
.*     AF 5.1.0 MORE PARTITION SUPPORT                        *@D51IDMZ 02050000
.*     AF 5.2.0 31 BIT SUPPORT(LOC,PMSPACE PARAMETER)         *@D52VDCS 02075052
.*                                                                      02100000
.ZZZ     ANOP                                                 *         02150000
.* A000000-999999                                             *@D14CDJB 02200000
***************************************************************         02250000
         AIF   (T'&ERROR EQ 'O').G0                                     02300000
         MNOTE 4,'POSITIONAL PARAMETER SPECIFIED - MACRO IGNORED'       02350000
         MEXIT                                                          02400000
.G0      ANOP                                                           02450000
&BLPX    SETB  1                  NO PAGE CROSSING IS DEFAULT  @D51IDMZ 02500000
&BLSVA   SETB  1                  SVA REQUEST IS DEFAULT       @D51IDMZ 02550000
         AIF   (T'&NAME EQ 'O').PRSP                                    02600000
&NAME    DS    0H                                                       02650000
.PRSP    ANOP                                                  @D51IDMZ 02700000
.**************************************************************         02701852
.*   PROCESS PMSPACE PARAMETER                                 @D52VDMZ 02703652
.**************************************************************         02705452
         AIF   ('&PMSPACE' EQ 'NO').GS                         @D52VDMZ 02707252
         AIF   (T'&SPID EQ 'O').GS0       PARAMETER SPECIFIED           02707552
         MNOTE 8,'SPID PARAMETER IS NOT ALLOWED WITH PMSPACE PARAMETER *02707852
               - MACRO IGNORED'                                         02708152
         MEXIT                                                 @D52VDMZ 02708452
.GS0     ANOP                                                  @D52VDMZ 02708752
&BLPMSP  SETB  1                  PMR SPACE GETVIS REQUEST     @D52VDMZ 02709052
&BLPX    SETB  0                  PAGE CROSSING ALLOWED        @D52VDMZ 02710852
&BLSVA   SETB  0                  NO SVA REQUEST               @D52VDMZ 02712652
         AIF   ('&SPACE' EQ 'NO').GP0                          @D52VDMZ 02714452
         MNOTE 8,'SPACE PARAMETER IS NOT ALLOWED WITH PMSPACE PARAMETER*02716252
                - MACRO IGNORED'                                        02718052
         MEXIT                                                 @D52VDMZ 02719852
.GP0     ANOP                                                  @D52VDMZ 02721652
         AIF   ('&EXCREQ' EQ 'NO').GP1                         @D52VDMZ 02723452
         MNOTE 8,'EXCREQ MUST NOT BE SPECIFIED WITH PMSPACE PARAMETER -*02725252
                MACRO IGNORED'                                          02727052
         MEXIT                                                 @D52VDMZ 02728852
.GP1     ANOP                                                  @D52VDMZ 02730652
         AIF   ('&PFIX' EQ 'NO').GP2                           @D52VDMZ 02732452
         MNOTE 8,'PFIX PARAMETER MUST NOT BE SPECIFIED WITH PMSPACE PAR*02734252
               AMETER - MACRO IGNORED'                                  02736052
         MEXIT                                                 @D52VDMZ 02737852
.GP2     ANOP                                                  @D52VDMZ 02739652
         AIF   ('&LOC' NE 'RES').G1                            @D52VDMZ 02741452
         MNOTE 8,'LOC=RES NOT ALLOWED WITH PMSPACE PARAMETER - MACRO IG*02743252
               NORED'                                                   02745052
         MEXIT                                                 @D52VDMZ 02746852
.**************************************************************@D51IDMZ 02750000
.*   PROCESS SPACE PARAMETER                                   @D51IDMZ 02800000
.**************************************************************@D51IDMZ 02850000
.GS      ANOP                                                  @D52VDMZ 02875052
         AIF   ('&SPACE' EQ 'NO').G1                           @D51IDMZ 02900000
&BLSPCE  SETB  1                  SPACE GETVIS REQUEST         @D51IDMZ 02950000
&BLPX    SETB  0                  PAGE CROSSING ALLOWED        @D51IDMZ 03000000
&BLSVA   SETB  0                  NO SVA REQUEST               @D51IDMZ 03050000
         AIF   ('&SPACE' EQ 'YES').SPCHEK2                     @D51IDMZ 03100000
         AIF   ('&SPACE' EQ 'FTCHPR').SPCHEK0                  @D51IDMZ 03150000
         AIF   ('&SPACE' EQ 'PARTKEY').SPCHEK1                 @D51IDMZ 03200000
         MNOTE 8,'INVALID SPACE PARAMETER SPECIFIED - MACRO IGNORED'    03250000
         MEXIT                                                          03300000
.SPCHEK0 ANOP                                                  @D51IDMZ 03350000
&BLFCHPR SETB  1                  FETCH PROTECTED              @D51IDMZ 03400000
         AGO   .SPCHEK2                                        @D51IDMZ 03450000
.SPCHEK1 ANOP                                                  @D51IDMZ 03500000
&BLPKEY  SETB  1                                               @D51IDMZ 03550000
.SPCHEK2 ANOP                                                  @D51IDMZ 03600000
         AIF   (T'&FTCHPR EQ 'O').SPCHEK3                      @D51IDMZ 03650000
         MNOTE 8,'FTCHPR PARAMETER MUST NOT BE SPECIFIED WITH SPACE PAR*03700000
               AMETER - MACRO IGNORED'                                  03750000
         MEXIT                                                 @D51IDMZ 03800000
.SPCHEK3 ANOP                                                  @D51IDMZ 03850000
         AIF   ('&PFIX' NE 'YES').G1                           @D51IDMZ 03900000
         MNOTE 8,'PFIX=YES NOT ALLOWED FOR SPACE REQUEST - MACRO IGNORE*03950000
               D'                                                       04000000
         MEXIT                                                 @D51IDMZ 04050000
.G1      ANOP                                                           04100000
.**************************************************************@D52VDCS 04103352
.*   PROCESS  LOC  PARAMETER                                   @D52VDCS 04106652
.**************************************************************@D52VDCS 04109952
         AIF   ('&LOC' EQ 'RES').G7                            @D52VDCS 04113252
         AIF   ('&LOC' EQ 'BELOW').LOCBEL                      @D52VDCS 04116552
         AIF   ('&LOC' EQ 'ANY').LOCANY                        @D52VDCS 04119852
         MNOTE 8,'INVALID LOC OPERAND SPECIFIED - MACRO IGNORED'        04123152
         MEXIT                                                 @D52VDCS 04126452
.LOCBEL  ANOP                                                  @D52VDCS 04129752
&BLBEL   SETB  1          LOC = BELOW SPECIFIED                @D52VDCS 04133052
         AGO   .G7                                             @D52VDCS 04136352
.LOCANY  ANOP                                                  @D52VDCS 04139652
&BLANY   SETB  1          LOC = ANY SPECIFIED                  @D52VDCS 04142952
.G7      ANOP                                                  @D52VDCS 04146252
.**************************************************************@D149DJB 04150000
.*   PROCESS LENGTH PARAMETER                                  @D149DJB 04200000
.**************************************************************@D149DJB 04250000
         AIF   (T'&LENGTH EQ 'O').G4 IS LENGTH PAR. SPECIFIED?          04300000
         AIF   ('&LENGTH'(1,1) NE '(').G2 YES,IS IT A REGISTER?         04350000
         AIF   (T'&LENGTH(1) NE 'N').G15                                04400000
         AIF   (&LENGTH(1) EQ 0).G4 REGISTER 0?                         04450000
.G15     ANOP                                                           04500000
&BLLNGR  SETB  1                  INDICATE REGISTER NOTATION   @D51IDMZ 04550000
         AGO   .G4                                                      04600000
.G2      AIF   (T'&LENGTH NE 'N').G3                                    04650000
         MNOTE 4,'LENGTH PARAMETER INVALID  - MACRO IGNORED'            04700000
         MEXIT                                                          04750000
.G3      ANOP                                                           04800000
&BLLNGV  SETB  1                  INDICATE VARIABLE NOTATION   @D51IDMZ 04850000
.**************************************************************@D149DJB 04900000
.*   PROCESS PAGE PARAMETER                                    @D149DJB 04950000
.**************************************************************@D149DJB 05000000
.G4      ANOP                                                           05050000
         AIF   ('&PAGE' EQ 'NO').G42                                    05100000
         AIF   ('&PAGE' EQ 'YES').G41                                   05150000
         MNOTE 3,'PAGE PARAMETER INCORRECT - ''NO'' ASSUMED'            05200000
         AGO   .G42                                                     05250000
.G41     ANOP                                                           05300000
&BLPAGE  SETB  1                                                        05350000
.**************************************************************@D149DJB 05400000
.*   PROCESS SPID PARAMETER                                    @D149DJB 05450000
.**************************************************************@D149DJB 05500000
.G42     AIF   (T'&SPID EQ 'O').G44       PARAMETER SPECIFIED           05550000
         AIF   ('&SPID'(1,1) NE '(').G422      REG NOTATION             05600000
         AIF   (T'&SPID(1) NE 'N').G421      ABS REG NOTATION           05650000
         AIF   (&SPID(1) EQ 1).G424      SKIP FOR RIGHT REG             05700000
.G421    ANOP                                                           05750000
&BLSPIR  SETB  1                    INDICATE REGISTER NOTATION @D51IDMZ 05800000
         AGO   .G424                                                    05850000
.G422    AIF   (T'&SPID NE 'N').G423      VALID SYMBOL                  05900000
         AIF   (&BLSPCE AND (&BLFCHPR OR &BLPKEY)).G425        @D51IDMZ 05950000
         MNOTE 3,'SPID PARAMETER INVALID - IGNORED'                     06000000
         AGO   .G45                                                     06050000
.G425    ANOP                                                           06100000
         MNOTE 8,'REQUIRED SPID PARAMETER IS INVALID - MACRO IGNORED'   06150000
         MEXIT                                                 @D51IDMZ 06200000
.G423    ANOP                                                           06250000
&BLSPIV  SETB  1                    INDICATE VARIABLE NOTATION @D51IDMZ 06300000
.G424    ANOP                                                           06350000
&BLPLID  SETB  1                                                        06400000
         AGO   .G45                                            @D51IDMZ 06450000
.G44     ANOP                                                  @D14CDJB 06500000
.**************************************************************         06550000
.*   CHECK SPACE PARAMETER                                     @D51IDMZ 06600000
.**************************************************************         06650000
         AIF   (NOT(&BLSPCE AND (&BLFCHPR OR &BLPKEY))).G45             06700000
         MNOTE 8,'SPID PARAMETER REQUIRED FOR SPACE=PARTKEY AND SPACE=F*06750000
               TCHPR - MACRO IGNORED'                                   06800000
         MEXIT                                                 @D51IDMZ 06850000
.**************************************************************@D149DJB 06900000
.*   PROCESS PFIX PARAMETER                                    @D149DJB 06950000
.**************************************************************@D149DJB 07000000
.G45     ANOP                                                  @D14CDJB 07050000
         AIF   ('&PFIX' EQ 'NO').SPCNT                         @D51IDMZ 07100000
         AIF   ('&PFIX' EQ 'YES').GPFIX                        @D14CDJB 07150000
         MNOTE 8,'PFIX PARAMETER INCORRECT - ''NO'' ASSUMED'   @D14CDJB 07200000
         AGO   .SPCNT                                          @D51IDMZ 07250000
.GPFIX   ANOP                                                  @D14CDJB 07300000
         AIF   (&BLPLID).GPFVAL                                @D14CDJB 07350000
         MNOTE 8,'PFIX ONLY VALID WITH SPID - ''NO'' ASSUMED'  @D14CDJB 07400000
         AGO   .SPCNT                                          @D51IDMZ 07450000
.GPFVAL  ANOP                                                  @D14CDJB 07500000
&BLPFIX  SETB  1                                               @D14CDJB 07550000
.**************************************************************         07600000
.*   PROCESS SPCNTRL PARAMETER                                          07650000
.**************************************************************         07700000
.SPCNT   ANOP                                                  @D51IDMZ 07750000
         AIF   ('&SPCNTRL' EQ 'NO').PRFTPR                     @D51IDMZ 07800000
         AIF   ('&SPCNTRL' EQ 'YES').SPCNTOK                   @D51IDMZ 07850000
         MNOTE 8,'SPCNTRL PARAMETER INCORRECT - ''NO'' ASSUMED'         07900000
         AGO   .PRFTPR                                         @D51IDMZ 07950000
.SPCNTOK ANOP                                                  @D51IDMZ 08000000
         AIF   (&BLPLID).SPCNVAL                               @D51IDMZ 08050000
         MNOTE 8,'SPCNTRL ONLY VALID WITH SPID - ''NO'' ASSUMED'        08100000
         AGO   .PRFTPR                                         @D51IDMZ 08150000
.SPCNVAL ANOP                                                  @D51IDMZ 08200000
&BLSPCN  SETB  1                                               @D51IDMZ 08250000
.**************************************************************@D149DJB 08300000
.*   PROCESS FTCHPR PARAMETER                                  @D149DJB 08350000
.**************************************************************@D149DJB 08400000
.PRFTPR  ANOP                                                  @D14CDJB 08450000
         AIF   (T'&FTCHPR EQ 'O').PREXRQ                       @D51IDMZ 08500000
         AIF   ('&FTCHPR' EQ 'NO').PREXRQ                      @D14CDJB 08550000
         AIF   ('&FTCHPR' EQ 'YES').GFTHPR                     @D14CDJB 08600000
         MNOTE 8,'FTCHPR PARAMETER INCORRECT - ''NO'' ASSUMED' @D14CDJB 08650000
         AGO   .PREXRQ                                         @D14CDJB 08700000
.GFTHPR  ANOP                                                  @D14CDJB 08750000
         AIF   (&BLPLID).GFPVAL                                @D14CDJB 08800000
         MNOTE 8,'FTCHPR ONLY VALID WITH SPID- ''NO'' ASSUMED' @D14CDJB 08850000
         AGO   .PREXRQ                                         @D14CDJB 08900000
.GFPVAL  ANOP                                                  @D14CDJB 08950000
&BLFCHPR SETB  1                                               @D14CDJB 09000000
.**************************************************************@D149DJB 09050000
.*   PROCESS EXCREQ PARAMETER                                  @D149DJB 09100000
.**************************************************************@D149DJB 09150000
.PREXRQ  ANOP                                                  @D14CDJB 09200000
         AIF   ('&EXCREQ' EQ 'NO').PRSAVE                      @D14CDJB 09250000
         AIF   ('&EXCREQ' EQ 'YES').GEXREQ                     @D14CDJB 09300000
         MNOTE 8,'EXCREQ PARAMETER INCORRECT - ''NO'' ASSUMED' @D14CDJB 09350000
         AGO   .PRSAVE                                         @D14CDJB 09400000
.GEXREQ  ANOP                                                  @D14CDJB 09450000
&BLEXRQ  SETB  1                                               @D14CDJB 09500000
.**************************************************************@D149DJB 09550000
.*  PROCESS SAVE PARAMETER                                     @D149DJB 09600000
.**************************************************************@D149DJB 09650000
.PRSAVE  ANOP                                                  @D14CDJB 09700000
         AIF   (T'&SAVE EQ 'O').GENCOD    PARAMETER SPECIFIED ?@D14CDJB 09750000
         AIF   ('&SAVE'(1,1) NE '(').SVADD     REG NOTATION    @D14CDJB 09800000
&SAVEAR  SETC  '16&SAVE'          GET SAVE AREA OFFSET         @D14CDJB 09850000
&SAVEPTR SETC  '&SAVE(1)'         GET SAVE AREA POINTER        @D14CDJB 09900000
&A       SETC  'R'                GET INSTRUCTION MODIFIER     @D14CDJB 09950000
         AGO   .SVCOM                                          @D14CDJB 10000000
.SVADD   ANOP                                                  @D14CDJB 10050000
         AIF   (T'&SAVE NE 'N').SVLA      VALID SYMBOL         @D14CDJB 10100000
         MNOTE 8,'SAVE PARAMETER INVALID - MACRO IGNORED'      @D14CDJB 10150000
         MEXIT                                                 @D14CDJB 10200000
.SVLA    ANOP                                                  @D14CDJB 10250000
&SAVEAR  SETC  '&SAVE+16'         GET SAVE AREA OFFSET         @D14CDJB 10300000
&SAVEPTR SETC  '&SAVE'            GET SAVE AREA POINTER        @D14CDJB 10350000
&A       SETC  'A'                GET INSTRUCTION MODIFIER     @D14CDJB 10400000
.SVCOM   ANOP                                                  @D14CDJB 10450000
&BLSAVE  SETB  1                                               @D14CDJB 10500000
.**************************************************************@D149DJB 10550000
.*   GENERATE CODE                                             @D149DJB 10600000
.**************************************************************@D149DJB 10650000
.GENCOD  ANOP                                                  @D14CDJB 10700000
         AIF   (&BLLNGR).GENCOD0  REGISTER NOTATION            @D51IDMZ 10750000
         AIF   (&BLLNGV).GENCOD1  VARIABLE NOTATION            @D51IDMZ 10800000
         AGO   .GENCOD2                                        @D51IDMZ 10850000
.GENCOD0 ANOP                                                           10900000
         LR    0,&LENGTH(1)       LOAD LENGTH INTO REGISTER 0           10950000
         AGO   .GENCOD2                                        @D51IDMZ 11000000
.GENCOD1 ANOP                                                           11050000
         L     0,&LENGTH          LOAD LENGTH INTO REGISTER 0           11100000
.GENCOD2 ANOP                                                           11150000
         AIF   (&BLSPIR).GENCOD3  REGISTER NOTATION            @D51IDMZ 11200000
         AIF   (&BLSPIV).GENCOD4  VARIABLE NOTATION            @D51IDMZ 11250000
         AGO   .GENCOD5                                        @D51IDMZ 11300000
.GENCOD3 ANOP                                                           11350000
         LR    1,&SPID(1)         GET POOL ID                           11400000
         AGO   .GENCOD5                                        @D51IDMZ 11450000
.GENCOD4 ANOP                                                           11500000
         LA    1,&SPID            GET POOL ID                           11550000
.GENCOD5 ANOP                                                           11600000
         CNOP  0,4                                             @D52VDCS 11625052
         BAL   15,*+8                                          @D52VDCS 11650052
         DC    B'00000000000000000&BLPMSP&BLANY&BLBEL&BLSPCN&BLPKEY&BLS*11675052
               PCE&BLEXRQ&BLPX&BLFCHPR.0&BLPFIX&BLPLID&BLSVA.0&BLPAGE'  11700052
         L     15,0(,15)                                       @D52VDCS 11725052
         AIF   (&BLSAVE).ALTSRA        ALTERNATE SAVE AREA     @D14CDJB 11750000
         STM   9,8,SVCSV3-TCBADR(10) SAVE ALL REGISTERS                 11800052
         LA    13,SVCSV3-16-TCBADR(10) SAVE AREA POINTER       @D14CDJB 11850052
         AGO   .GENBR                                          @D14CDJB 11900000
.ALTSRA  ANOP                                                  @D14CDJB 11950000
         STM   9,8,&SAVEAR             SAVE ALL REGISTERS      @D14CDJB 12000052
         L&A   13,&SAVEPTR             SAVE AREA POINTER       @D14CDJB 12050052
.GENBR   ANOP                                                  @D14CDJB 12100000
         ASYSCOM 7                                             @D14NDFG 12150052
         L     7,IJBSPAVT-SYSCOM(7)  SUPERV. ADDRESS VECTOR    @D14NDFG 12200052
         L     7,ASGETVIS-SUPAVT(7)  ROUTINE ADDRESS           @D14NDFG 12250052
         BALR  7,7                   INTERNAL GETVIS ROUTINE   @D14CDJB 12300052
         AIF   (&BLSAVE).ALTSRB        ALTERNATE SAVE AREA ?   @D14CDJB 12350000
         LM    9,8,SVCSV3-TCBADR(10)   RESTORE ALL REGISTERS            12400052
         AGO   .PRADDR                                         @D14CDJB 12450000
.ALTSRB  ANOP                                                  @D14CDJB 12500000
         LM    9,8,16(13)              RESTORE ALL REGISTERS   @D14CDJB 12550052
.**************************************************************@D149DJB 12600000
.*   PROCESS ADDRESS PARAMETER                                 @D149DJB 12650000
.**************************************************************@D149DJB 12700000
.PRADDR  ANOP                                                  @D14CDJB 12750000
         AIF   (T'&ADDRESS EQ 'O').G6                                   12800000
         AIF   ('&ADDRESS'(1,1) EQ '(').G5                              12850000
         AIF   (T'&ADDRESS NE 'N').G49                                  12900000
         MNOTE 3,'ADDRESS PARAMETER INVALID - IGNORED'                  12950000
         MEXIT                                                          13000000
.G49     ST    1,&ADDRESS         STORE RETURNED ADDRESS                13050000
         AGO   .G6                                                      13100000
.G5      AIF   (T'&ADDRESS(1) NE 'N').G56                               13150000
         AIF   ('&ADDRESS(1)' EQ '1').G6 REGISTER 1 WAS SPECIFIED       13200000
         AIF   (&ADDRESS(1) NE 15).G56                                  13250000
         MNOTE 4,'RETURN CODE IN REGISTER 15 WILL BE DESTROYED'         13300000
.G56     LR    &ADDRESS(1),1      LOAD RETURNED ADDRESS FROM REGISTER 1 13350000
.G6      MEND                                                           13400000
