         MACRO                                                          00040000
&NAME    SGSTAR                                                         00080005
         GBLB   &BG31                                                   00120005
         GBLB   &BGFBA                                                  00130005
         GBLB   &SGSTAR                                                 00140005
         GBLB   &BGDEBUG                                                00150005
         TITLE 'VSE SUPERVISOR     SGSTAR    README PART              ' 00160015
***************************************************************@D51MDGL 00520000
*                                                             *@D51MDGL 00560000
.*       IBM VSE / ADVANCED FUNCTIONS                         *@D51MDGL 00600000
*        SUPERVISOR - SGSTAR - 5686-032-06                    *@D51MDGL 00640017
*                                                             *@D51MDGL 00680000
*        LICENSED MATERIALS - PROPERTY OF IBM                 *@D51MDGL 00720000
*        THIS MACRO IS "RESTRICTED MATERIALS OF IBM"          *@D51MDGL 00760000
*        5686-032 (C) COPYRIGHT IBM CORP. 1979, 2000          *@D51MDGL 00800025
*        SEE COPYRIGHT INSTRUCTIONS                           *@D51MDGL 00840000
*                                                             *@D51MDGL 00880000
***************************************************************@D51MDGL 00920000
 AIF   (NOT &SGSTAR OR NOT &BGDEBUG).NPRT00                    @D51MDGL 00960000
         PRINT  GEN                                            @D51MDGL 01000000
* STAR (SYSTEM TRACK ALGORITHM ROUTINE). IT PROVIDES:          @D51MDGL 01160011
* ROUTINES FOR SECTOR CALCULATION,                             @D51MDGL 01240011
* ROUTINES TO CALCULATE THE NO. OF RECORDS THAT FIT ON A TRACK @D51MDGL 01280011
* ROUTINES TO BALCULATE THE REMAINING TRACK BALANCE            @D51MDGL 01320011
*                                                              @D51MDGL 01400000
*                                                              @D51MDGL 01401031
* INTERFACES TO SGSTAR MACRO                                   @D51MDGL 01402031
*  THE USER PROVIDES INPUT DATA WHICH WILL BE COPIED INTO      @D51MDGL 01403031
*  STARDATA, OR SHORT STAD AND ALL ROUTINES WILL ACCESS THIS   @D51MDGL 01404031
*  DATA ONLY                                                   @D51MDGL 01405031
*                                                              @D51MDGL 01406031
*  THE ENTRY POINTS FOR SGSTAR ARE AS FOLLOWS:                 @D51MDGL 01407031
*  LABEL SVC75                                                 @D51MDGL 01408031
*    ENTRY FOR EXTERNAL PROBLEM PROGRAMS, REQUESTING A         @D51MDGL 01409031
*    SECTOR CALCULATION.                                       @D51MDGL 01409131
*    THE PROGRAM ACCEPTS AN OLD OR A NEW INTERFACE:            @D51MDGL 01409231
*    THE NEW INTERFACE IS:                                     @D51MDGL 01409331
*      SVER00: 16BIT DATALNG/ 8BIT KEYLNG/ 8BIT RECORDNO       @D51MDGL 01409431
*      SVER01: 8BIT  X'00'/ 8BIT FLAGS  /16BIT DEVICE INDICAT. @D51MDGL 01409531
*        THE DEVICE INDICATION CAN BE                          @D51MDGL 01409631
*          LOGICAL UNIT IN CCB FORMAT (TWO BYTE)               @D51MDGL 01409731
*          PUB INDEX (TWO BYTE)                                @D51MDGL 01409831
*          X'00' AND DTF DEVICE TYPE CODE (ONE BYTE)           @D51MDGL 01409931
*                                                              @D51MDGL 01410031
*    THE OLD INTERFACE IS:                                     @D51MDGL 01411031
*      IF RECORD NUMBER IS NOT ZERO:                           @D51MDGL 01412031
*      SVER00: 1BIT FLAG/15BIT DATALNG/8BIT KEYLNG/8BIT RECORDNO        01413031
*      IF RECORD NUMBER IS ZERO:                               @D51MDGL 01414031
*      SVER00: 16BIT ALL USED DATA ON THE TRACK INCL.OVERHEADS /        01415031
*              16BIT ALL 0                                     @D51MDGL 01416031
*      SVER01: 8BIT  DTF DEV.TYPE CODE/24BIT GARBAGE           @D51MDGL 01417031
*                                                              @DEV14GL 01418031
.NPRT00  AIF   (NOT &BGDEBUG).NDBG020                          @D66CDAP 01420031
.* MODIFICATIONS IN THIS VERSION ARE:                          @D51MDGL 01440000
.*  - ECKD DEVICES ARE SUPPORTED NOW,                          @D51MDGL 01480000
.*  - NEW INTERFACE FOR SECTOR CALCULATION                     @D51MDGL 01520000
.*  - ALL CALCULATIONS BASED ON RDC DATA                       @D51MDGL 01600000
.*                                                             @D51MDGL 01640000
.* THE RECORD LENGTH CALCULATION FORMULA IS TAKEN FROM THE     @D51MDGL 01960000
.* RDC DATA. IT CAN EITHER BE                                  @D51MDGL 02000011
.*  X'01' FOR A CKD DEVICE (MODULO OR NON MODULO)              @D51MDGL 02080000
.*  X'02' FOR AN ECKD DEVICE.                                  @D51MDGL 02120000
.* VALUES 01 AND 02 ARE INDICATORS FOR ARCHITECTURED FORMULAS. @D51MDGL 02160000
.*                                                             @D51MDGL 02200000
.*                                                             @D51MDGL 02320000
.* LAYOUT OF THE TRACK:                                        @D51MDGL 02360000
.* (RECORD 0 OVERHEAD),(RECORD),(RECORD),(LAST RECORD),(FREE SPACE)     02400000
.*                                                             @D51MDGL 02440000
.* A KEYED RECORD CONSISTS OF                                  @D51MDGL 02480000
.* ((VCTCCF45)*(VCTCCF1-VCTCCF3+KEYLNG+DATALNG))/512+VCTCCF2   @D51MDGL 02520000
.* A NON KEYED RECORD:                                         @D51MDGL 02560000
.* ((VCTCCF45)*(VCTCCF1-VCTCCF3+DATALNG))/512+VCTCCF2-VCTCCF3  @D51MDGL 02600000
.* A KEYED LAST RECORD CONSISTS OF:                            @D51MDGL 02640000
.* (VCTCCF2+KEYLNG+DATALNG)                                    @D51MDGL 02680000
.* A NON KEYED LAST RECORD:                                    @D51MDGL 02720000
.* (VCTCCF2-VCTCCF3+DATALNG)                                   @D51MDGL 02760000
.* VALUES IN VCT:                                              @D51MDGL 02800000
.* VCTCCF1  (8  BIT) = LAST RECORDS RECORD AND KEY OVERHEAD    @D51MDGL 02840000
.* VCTCCF2  (8  BIT) = NONLAST RECORDS RECORD AND KEY OVERHEAD @D51MDGL 02880000
.* VCTCCF3  (8  BIT) = KEY OVERHEAD                            @D51MDGL 02920000
.* VCTCCF45 (16 BIT) = TOLERANCE FACTOR                        @D51MDGL 02960000
.*                                                             @D51MDGL 03000000
.*                                                             @D51MDGL 03040000
.* 2. CASE: DEVICE IS CKD MODULO DEVICE                        @D51MDGL 03080000
.*                                                             @D51MDGL 03120000
.* TRACK LAYOUT IS:                                            @D51MDGL 03160000
.* (RECORD 0 OVERHEAD),(RECORD),(RECORD),(RECORD),(FREE SPACE) @D51MDGL 03200000
.*                                                             @D51MDGL 03240000
.* RECORD SPACE (INCLUDING ALL GAPS) IS:                       @D51MDGL 03280000
.*                                                             @D51MDGL 03320000
.* A KEYED RECORD CONSISTS OF:                                 @D51MDGL 03360000
.*   (((F2+DATALNG+F1-1)/F1)*F1)+(((F3+KEYLNG+F1-1)/F1)/*F1)   @D51MDGL 03400000
.*   WITHIN THIS RECORD THE 'ADMINISTRATIVE PART' IS           @D51MDGL 03440000
.*     F2+(((F3+KEYLNG+F1-1)/F1)/*F1)                          @D51MDGL 03480000
.*                                                             @D51MDGL 03520000
.* AN UNKEYED RECORD CONSISTS OF:                              @D51MDGL 03560000
.*   (((F2+DATALNG+F1-1)/F1)*F1)                               @D51MDGL 03600000
.*   HERE THE  'ADMINISTRATIVE PART' IS F2                     @D51MDGL 03640011
.*                                                             @D51MDGL 03720000
.* THE F1,F2 AND F3 VALUES STEM FROM THE VCT:                  @D51MDGL 03760011
.* F1 = BYTES PER SEGMENT                                      @D51MDGL 03800011
.* F2 = RECORD OVERHEAD                                        @D51MDGL 03840011
.* F3 = KEY OVERHEAD                                           @D51MDGL 03880011
.*                                                             @D51MDGL 03920000
.*                                                             @D51MDGL 04080000
.* 3. CASE: DEVICE IS ECKD DEVICE                              @D51MDGL 04120000
.*                                                             @D51MDGL 04160000
.*  GROSS_TRACK_CAPACITY=(FRONT_PART)+(SPACE_FOR_RECORDS)+(REAR_PART)   04200000
.*                                                             @D51MDGL 04240000
.*  FRONT_PART = (POST INDEX GAP)+(HOME ADDRESS)+(POST H.A. GAP)+       04280000
.*               (R0 COUNT AREA)+(COUNT GAP)+(R0 DATA AREA);   @D51MDGL 04320000
.*                                                             @D51MDGL 04360000
.*  REAR_PART  = (PRE EOT MARK GAP)+(EOT MARK)+SPACE FOR 6 DEFECT SKIPS 04400000
.*                                                             @D51MDGL 04440000
.*  SPACE_FOR_RECORDS = N * (PART_OF_KEY_AND_DATA);            @D51MDGL 04480000
.*                                                             @D51MDGL 04520000
.*  PART_OF_KEY_AND_DATA = (FL1 + FL2)                         @D51MDGL 04560000
.*                                                             @D51MDGL 04600000
.*  FL1 AND FL2 ARE ROUNDED UP TO AN INTEGRAL MULTIPLE OF F1, WHICH IS  04640000
.*  34 AT THE MOMENT.                                          @D51MDGL 04680000
.*                                                             @D51MDGL 04720000
.*  FL1 = (F1*F2)+(DATALNG+F6+(F4*INT1))                       @D51MDGL 04760000
.*                                                             @D51MDGL 04800000
.*  INT1 = SMALLEST INTEGER GREATER THAN OR EQUAL TO           @D51MDGL 04840000
.*         ((DATALNG+F6)/(2*F5))                               @D51MDGL 04880000
.*                                                             @D51MDGL 04920000
.*  FL2 = (F1*F3)+(KEYLNG+F6+(F4*INT2))                        @D51MDGL 04960000
.*                                                             @D51MDGL 05000000
.*  INT2 = SMALLEST INTEGER GREATER THAN OR EQUAL TO           @D51MDGL 05040000
.*         ((KEYLNG+F6)/(2*F5))                                @D51MDGL 05080000
.*                                                             @D51MDGL 05120000
.* THE VALUES OF F1,F2,F3,F4,F5,F6 ARE ALL BYTES IN THE VCT    @D51MDGL 05160011
*    WITH VSE ESA 1.4.0 THERE IS A FAST SECTOR CALCULATION     @DEV14GL 06404401
*    INTRODUCED, WHICH IS BASED ON THE USE OF A BUFFER.        @DEV14GL 06406601
*    THE BUFFER SHALL CONTAIN ALL DATA THAT ARE REQUIRED       @DEV14GL 06408801
*    TO DO A FAST CALCULATION OF THE SECTOR VALUE, WITH THE    @DEV14GL 06411001
*    RECORD NUMBER BEING THE ONLY VARIABLE VALUE. THIS OF      @DEV14GL 06413201
*    COURSE ASSUMES, THAT ALL OTHER FACTORS LIKE DATA LENGTH,  @DEV14GL 06415401
*    KEY LENGTH AND TRACK GEOMETRY (DEVICE TYPE) DID NOT CHANGE@DEV14GL 06417601
*    SINCE THE BUFFER WAS FILLED.                              @DEV14GL 06419801
*    SECTVAL EXPANDS INTO CODE THAT IS FIRST LOOKING IF THE    @DEV14GL 06422001
*    BUFFER CONTENTS CAN BE USED OR NOT. IF THE BUFFER IS      @DEV14GL 06424201
*    EMPTY THE SVC 75 IS TAKEN TO FILL IN THE BUFFER CONTENTS  @DEV14GL 06426401
*    AND IN ADDITION PROVIDE THE SECTOR VALUE. NEXT TIME THE   @DEV14GL 06428601
*    USER COMES WITH THAT SAME BUFFER, THE CALCULATION IS      @DEV14GL 06430801
*    DONE IN INLINE CODE OF THE CALLER. THERE IS NO SVC75.     @DEV14GL 06433001
*    THE FOLLOWING SECTOR CALCULATION FORMULAS ARE INTRODUCED  @DEV14GL 06435201
*    RIGHT NOW:                                                @DEV14GL 06437401
*    FORMULA 1:                                                @DEV14GL 06439601
*       SLR    R1,R1                                           @DEV14GL 06441801
*       CLI    RECORDNUMBER,0                                  @DEV14GL 06444001
*       BE     EXIT                                            @DEV14GL 06446201
*       IC     R1,RECORDNUMBER                                 @DEV14GL 06448401
*       BCTR   R1,0                                            @DEV14GL 06450601
*       M      R0,FACTOR0                                      @DEV14GL 06452801
*       A      R1,FACTOR1                                      @DEV14GL 06455001
*       M      R0,FACTOR2                                      @DEV14GL 06457201
*       D      R0,FACTOR3                                      @DEV14GL 06459401
*       C      R1,FACTOR4                                      @DEV14GL 06461601
*       BNH    EXIT                                            @DEV14GL 06463801
*       LA     R1,X'FF'                                        @DEV14GL 06466001
* EXIT  EQU    *                                               @DEV14GL 06468201
*                                                              @DEV14GL 06470401
*                                                              @DEV14GL 06472601
*                                                              @DEV14GL 06474801
*  LABEL SCVRTBAL                                              @D51MDGL 06480000
*    IS THE OLD BAL INTERFACE FOR SECTOR CALCULATION.          @D51MDGL 06520000
*    IT SUPPORTS THE OLD INTERFACE MENTIONED ABOVE.            @D51MDGL 06560000
*                                                              @D51MDGL 06600000
.* LABEL STARSECT                                              @D51MDGL 06640000
.*   IS THE BAL INTERFACE FOR NEW SECTOR CALCULATION.          @D51MDGL 06680000
.*   REGISTERS ARE THE SAME AS IN THE OLD INTERFACE, ONLY      @D51MDGL 06720014
.*   A PUB INDEX IS ALWAYS SUPPLIED AS DEVICE INDENTIFICATION. @D51MDGL 06760000
.*                                                             @D51MDGL 06800000
*  LABEL STARSV99                                              @D51MDGL 06840000
*    BAL INTERFACE FOR BALANCE OR CAPACITY CALCULATION.        @D51MDGL 06880000
*    ENTERED BY SVC 99 FROM GETVCE MACRO:                      @D51MDGL 06920000
*      SVER00: 16BIT DATALNG/ 8BIT KEYLNG/ 8BIT RECORDNO       @D51MDGL 06960000
*      SVER01: 8BIT  X'00'/ 8BIT FLAGS/16BIT OPT. USER BALANCE @D51MDGL 07000000
*      R2:     POINTER TO A VALID VCT ENTRY.                   @D51MDGL 07040000
*                                                              @D51MDGL 07080000
*  LABEL CALCBAL                                               @D51MDGL 07120000
*    ENTRY OF THE SERVICE GETFLD FIELD=BALANCE.                @D51MDGL 07160000
*      R0: 16BIT DATALNG/ 8BIT KEYLNG/ 8BIT RECORDNO           @D51MDGL 07200000
*      R1: 16BIT LOGICAL UNIT NR./16BIT OPT. USER BALANCE      @D51MDGL 07240000
*    THE CALCULATION FIRST ASSUMES MAXSIZE IS NO, BUT CHANGES  @D51MDGL 07280000
*    TO MAXSIZE IS YES, IF THAT WAS NOT SUCCESSFUL.            @D51MDGL 07320000
*                                                              @D51MDGL 07360000
.*  IN THE BALANCE OR CAPACITY CALCULATIONS ALL CALCULATIONS   @D51MDGL 07400000
.*  ARE DONE FOR FIXED LENGTH RECORDS. THE USER PROVIDED       @D51MDGL 07440000
.*  BALANCE IS ALWAYS OPTIONAL. THE DEVICE, THE REQUEST IS MADE@D51MDGL 07480000
.*  FOR IS IDENTIFIED BY A POINTER TO A VOLUME CHARACTERISTICS @D51MDGL 07520000
.*  TABLE IN REGISTER R2.                                      @D51MDGL 07560000
.*                                                             @D51MDGL 07600000
.*  SINCE ALL THREE KINDS OF CALCULATIONS, SECTOR, BALANCE AND @D51MDGL 07640000
.*  CAPACITY REQUIRED THE SAME INFORMATION ABOUT RECORD LENGTHS,        07680000
.*  AND THOSE LENGTHS SHOULD BE CALCULATED AT ONE SINGLE SPOT  @D51MDGL 07720000
.*  IN THE SUPERVISOR, IT WAS NECESSARY TO MERGE THE INTERFACES@D51MDGL 07760000
.*  INTO ONE NEW INTERFACE.                                    @D51MDGL 07800000
.*                                                             @D51MDGL 07840000
.*  THE NEW INTERFACE IS DESCRIBED BY DSECT STARDATA.          @D51MDGL 07880000
.*                                                             @D51MDGL 07920000
.*   SECTOR CALCULATION:                                       @D51MDGL 07960000
.*                                                             @D51MDGL 08000000
.* THE SECTOR NUMBER FOR A USER DETERMINED SPOT ON THE TRACK   @D51MDGL 08040000
.* IS TO BE CALCULATED.                                        @D51MDGL 08080000
.*                                                             @D51MDGL 08120000
.*   BALANCE CALCULATION:                                      @D51MDGL 08160000
.*                                                             @D51MDGL 08200000
.* BALANCE CALCULATION DETERMINES THE AMOUNT OF PHYSICAL DATA  @D51MDGL 08240000
.* FITTING ONTO A TRACK, AFTER A WRITE OR DELETE RECORD OPERA- @D51MDGL 08280000
.* TION HAS BEEN CARRIED OUT.                                  @D51MDGL 08320000
.* THE OPERATION IS INDICATED IN THE OPTION REMOVE. REMOVE = 0 @D51MDGL 08360000
.* MEANS, THE RECORD IS TO BE WRITTEN, OTHERWISE IT IS TO BE   @D51MDGL 08400000
.* DELETED.                                                    @D51MDGL 08440000
.* THE USER MAY PROVIDE THAT BALANCE, WHICH IS TRUE BEFORE THE @D51MDGL 08480000
.* OPERATION INDICATED BY OPTION REMOVE TAKES PLACE. HIS RETURN@D51MDGL 08520000
.* VALUE WILL BE THE BALANCE AFTER THE OPERATION TOOK PLACE.   @D51MDGL 08560000
.*                                                             @D51MDGL 08600000
.* THE FOLLOWING FIGURE SHALL CLARIFY THE CALCULATION IN ROUTINE        08640000
.* STARB000:                                                   @D51MDGL 08680000
.* EXAMPLE 1, USER WANTS REMOVE=YES, PROVIDES BALANCE HIMSELF AND       08720000
.*            ASKS FOR RECORD NR. 3                            @D51MDGL 08760000
.*                                                             @D51MDGL 08800000
.* |<------------TOTAL USER SPACE ON TRACK (VCTCBTRK) --------->|       08840000
.* <######> =RECORD SIZE                                       @D51MDGL 08880000
.* <%%%%%%> =USER PROVIDED BALANCE                             @D51MDGL 08920000
.* <!!!!!!> =NEW BALANCE, CALCULATED BY SGSTAR AND RETURNED.   @D51MDGL 08960000
.*                                                             @D51MDGL 09000000
.* SITUATION ON ENTRY TO SGSTAR:                               @D51MDGL 09040000
.* |<######><######><######><%%%%%%%(GIVEN BY USER)%%%%%%%%%%%>|        09080000
.* SITUATION ON EXIT:                                          @D51MDGL 09120000
.* |<######><######><!!!!!!!!!!!!!!!!!!!!!!!!!!!!!!!!!!!!!!!!!>|        09160000
.*                                                             @D51MDGL 09200000
.* EXAMPLE 2, USER WANTS REMOVE=NO, PROVIDES NO BALANCE AND    @D51MDGL 09240000
.*            ASKS FOR RECORD NR. 3                            @D51MDGL 09280000
.*                                                             @D51MDGL 09320000
.* SITUATION ON ENTRY TO SGSTAR:                               @D51MDGL 09360000
.* |<######><######><.........................................>|        09400000
.* SITUATION ON EXIT:                                          @D51MDGL 09440000
.* |<######><######><######><!!!!!!!!!!!!!!!!!!!!!!!!!!!!!!!!!>|        09480000
.*                                                             @D51MDGL 09520000
.*                                                             @D51MDGL 09760000
.* OPTION MAXSIZE:                                             @D51MDGL 09800000
.* SETTING OPTION MAXSIZE MEANS, THAT THE USER DOES NOT WANT TO@D51MDGL 09840000
.* KNOW THE PHYSICAL AMOUNT OF DATA FITTING ONTO THE TRACK, BUT@D51MDGL 09880000
.* THE LOGICAL AMOUNT, I.E. THE NUMBER OF USER DATA IN HIS     @D51MDGL 09920000
.* RECORD. THIS ALSO APPLIES, IF THE RECORD TO BE WRITTEN      @D51MDGL 09960000
.* (IN CASE REMOVE = 0) DOES NOT FIT ONTO THE TRACK. IN THIS   @D51MDGL 10000000
.* CASE A THE RETURN CODE IS SET TO X'24' AND THE RETURN VALUE @D51MDGL 10040000
.* IS THE AMOUNT OF USER DATA STILL FITTING ONTO THE TRACK,    @D51MDGL 10080000
.* IF THE MENTIONED RECORD IS NOT WRITTEN TO IT.               @D51MDGL 10120000
.* MAXSIZE CALCULATION IS A BIT COMPLICATED FOR ECKD DEVICES.  @D51MDGL 10160000
.* IT IS THE REALIZATION OF THE FORMULA:                       @D51MDGL 10200000
.*                                                             @D51MDGL 10240000
.*        USERDATA = FUNCTION (SPACE)   (...+FUNCTION (KEYLNG))@D51MDGL 10280000
.*                                                             @D51MDGL 10320000
.* THE ORIGINAL FORMULAS ARE:                                  @D51MDGL 10360000
.* WITH                                                        @D51MDGL 10400000
.* MUL  =  MULTIPLICATION FACTOR,                              @D51MDGL 10440000
.* DIV  =  CONSTANT DIVIDER,                                   @D51MDGL 10480000
.* SEGM =  SEGMENT LENGTH,                                     @D51MDGL 10520000
.* FIX1 =  CONSTANT VALUE,                                     @D51MDGL 10560000
.* FIX2 =  CONSTANT VALUE.                                     @D51MDGL 10600000
.*                                                             @D51MDGL 10640000
.* SPACE     = (((DATIRES+SEGM-1)/SEGM)*SEGM);                 @D51MDGL 10680000
.* DATIRES   = FIX1D+(DATALNG+FIX2)+INT1(DATALNG+FIX2)         @D51MDGL 10720000
.* INT1(XYZ) = ((XYZ+DIV-1)/DIV)*MUL;                          @D51MDGL 10760000
.*                                                             @D51MDGL 10800000
.* THE FIRST FORMULA IS NOT RELEVANT, BECAUSE 'SPACE' MUST     @D51MDGL 10840000
.* ALWAYS BE DIVISIBLE BY SEGM. IT ALREADY IS A NUMBER OF BYTES@D51MDGL 10880000
.* ON AN ECKD TRACK, AND THIS SPACE MUST BE A MULTIPLE OF SEGM.@D51MDGL 10920000
.*                                                             @D51MDGL 10960000
.* THEREFORE CALCULATIONS CAN BE DONE BY THE FOLLOWING FORMULA:@D51MDGL 11000000
.*                                                             @D51MDGL 11040000
.* SPACE = FIX1+DATALNG+FIX2+MUL*((DATALNG+FIX2+DIV-1)/DIV)    @D51MDGL 11080000
.* I.E.                                                        @D51MDGL 11120000
.* SPACE-FIX1 = FUNCTION (DATALNG+FIX2)                        @D51MDGL 11160000
.*                                                             @D51MDGL 11200000
.* THE FUNCTION AMOUNT CONTAINS 'MUL' BYTES ERROR CORR. CODE   @D51MDGL 11240000
.* (ECC) FOR EVERY USED 'DIV' PACKAGE OF USER DATA, WITH FIX2 BEING     11280000
.*  PART OF THE USER DATA...                                   @D51MDGL 11320000
.*                                                             @D51MDGL 11360000
.* HENCE, THE SECOND PART MUST CONSIST OF COMBINED PACKAGES OF @D51MDGL 11400000
.* <'DIV'+'MUL'> BYTES, AND A REST OF BYTES.                   @D51MDGL 11440000
.* IF THIS REST IS SUFFICIENT FOR ONE FURTHER 'MUL' PACKAGE, THESE      11480000
.* ECC'S MAY SERVE TO ERROR-CHECK THE LAST UNCOMPLETED 'DIV'   @D51MDGL 11520000
.* PACKAGE OF USER DATA+FIX2 BYTES.                            @D51MDGL 11560000
.*                                                             @D51MDGL 11600000
.* EXAMPLE: (RANDOM VALUES)                                    @D51MDGL 11640000
.*   FIX1=270,FIX2=40,DIV=238,SPACE=1125*34=38250,MUL=6        @D51MDGL 11680000
.*                                                             @D51MDGL 11720000
.*   DIV+MUL    = 238+6                                        @D51MDGL 11760000
.*              = 244                                          @D51MDGL 11800000
.*   SPACE-FIX1 = 38250-270                                    @D51MDGL 11840000
.*              = 37980                                        @D51MDGL 11880000
.*   COMPLETE PACKAGES = 37980/244 = 155 REST 160              @D51MDGL 11920000
.*                                                             @D51MDGL 11960000
.*   SINCE 160 > MUL :  160-MUL = 154 BYTES CAN STILL BE USED  @D51MDGL 12000000
.*                                                             @D51MDGL 12040000
.*   DATALNG+FIX2 = 155*DIV+154 = 37044                        @D51MDGL 12080000
.*                                                             @D51MDGL 12120000
.*   FIX2 HAS TO BE SUBTRACTED: 37044-40 = 37004 BYTES DATALNG @D51MDGL 12160000
.*                                                             @D51MDGL 12200000
.* TEST BY FORMULA FOR SPACE:                                  @D51MDGL 12240000
.*  38250 = 37004+270+40+((37004+40+238-1)/238)*6  IS CORRECT! @D51MDGL 12280000
.* THE CODE WITHIN BALANCE CALCULATION IS BASED ON THIS IDEA.  @D51MDGL 12320000
.*                                                             @D51MDGL 12360000
.* ........... END OF DESCRIPTION OF OPTION MAXSIZE ............        12400000
.*                                                             @D51MDGL 12440000
.* OPTION LAST:  (OBSOLETE WITH 23XX SUPPORT BEING REMOVED)    @D51MDGL 12480000
.* OPTION LAST NOW INDICATES, THAT THE CALCULATIONS CONCERNING THE      12520000
.* RECORD MENTIONED, SHALL BE CARRIED OUT, AS IF THIS RECORD WERE       12560000
.* THE LAST RECORD ON A TRACK.                                 @D51MDGL 12600000
.* THIS DID MEAN A DIFFERENCE FOR 23XX DEVICES.                @D51MDGL 12640000
.*                                                             @D51MDGL 12680000
.* ========= END OF DESCRIPTION OF BALANCE CALCULATION =========        12720000
.*                                                             @D51MDGL 12760000
.*   CAPACITY CALCULATION:                                     @D51MDGL 12800000
.*                                                             @D51MDGL 12840000
.*   CAPACITY IS THE NUMBER OF RECORDS FITTING INTO A USER SUPPLIED     12880000
.*   OR CALCULATED BALANCE.                                    @D51MDGL 12920000
.*   THE VALUE CALCULATED DEPENDS ON THE OPTION REMOVE AGAIN,  @D51MDGL 12960000
.*   THAT MAY OR MAY NOT BE SET. IF REMOVE IS NO, SGSTAR TAKES @D51MDGL 13000000
.*   THE USER PROVIDED BALANCE, WITHOUT SUBTRACTING THE        @D51MDGL 13040000
.*   MENTIONED RECORDS SIZE FROM THIS VALUE. THIS IS DIFFERENT @D51MDGL 13080000
.*   FROM THE BALANCE CALCULATION, WHERE REMOVE EQUAL NO AND   @D51MDGL 13120000
.*   USER_PROVIDED_BALANCE EQUAL YES MEANT, THAT THE RECORDS   @D51MDGL 13160000
.*   SIZE SHOULD BE SUBTRACTED.                                @D51MDGL 13200000
.*   ON THE OTHER HAND, THIS MAKES SENSE IN THE                @D51MDGL 13240000
.*   FOLLOWING SEQUENCE OF REQUESTS:                           @D51MDGL 13280000
.*               1. GIVE ME A NEW BALANCE.                     @D51MDGL 13320000
.*               2. TELL ME HOW MANY RECORDS WILL STILL FIT INTO        13360000
.*                  THAT GIVEN BALANCE.                        @D51MDGL 13400000
.*                                                             @D51MDGL 13440000
.*                                                             @D51MDGL 13480000
.*   THE DIFFERENT VALUES RETURNED BY OLD SGSTAR:              @D51MDGL 13520000
.*   ABBREVIATIONS:                                            @D51MDGL 13560000
.*      DCTBTRK = NUMBER OF BYTES PER TRACK                    @D51MDGL 13600000
.*      NORMLNG = LENGTH OF A NORMAL OR NONLAST DATA RECORD    @D51MDGL 13640000
.*      LASTLNG = LENGTH OF LAST RECORD OF A 23.. DEVICE       @D51MDGL 13680000
.*                                                             @D51MDGL 13720000
.*      A USER BALANCE MAY BE PROVIDED. IN ANY CASE THE BALANCE@D51MDGL 13760000
.*      IS UPDATED TOO, IN THE SENSE OF THE DESCRIBED CALCULATIONS      13800000
.*      FOR THE OPTION REMOVE.                                 @D51MDGL 13840000
.*                                                             @D51MDGL 13880000
.*      RETURNED VALUES:                                       @D51MDGL 13920000
.*      NEW BALANCE= DCTBTRK-((RECNR-1)*NORMLNG)               @D51MDGL 14240000
.*      RETURNVALUE= ((NEW BALANCE-NORMLNG)/NORMLNG+1          @D51MDGL 14280000
.*                                                             @D51MDGL 14320000
.*                                                             @D51MDGL 14720000
.*  USE OF REGISTERS WITHIN SGSTAR CODE:                       @D51MDGL 14760000
.*                                                             @D51MDGL 14800000
.*  THE PROGRAMS HIERARCHY CONSISTS OF 3 DIFFERENT LAYERS      @D51MDGL 14840000
.*  LAYER 1: ALL INTERFACE CODEBLOCKS                          @D51MDGL 14880000
.*           (SVC75, CALCBAL, SCVRTBAL, STARSECT, STARSV99)    @D51MDGL 14920000
.*  LAYER 2: A) ROUTINES FOR ADAPTATION OF USER INPUT TO       @D51MDGL 14960000
.*           INTERNAL REQUIREMENTS (STARA...)                  @D51MDGL 15000000
.*           B) ROUTINES TO CARRY OUT THE SPECIFIED SERVICE.   @D51MDGL 15040000
.*  LAYER 3: RECORD LENGTH CALCULATION ROUTINES.               @D51MDGL 15080000
.*           (STARR000,STARR100,STARR400,STARR500)             @D51MDGL 15120000
.*                                                             @D51MDGL 15160000
.*  REGISTER R0/R1  ARE GENERAL PURPOSE CALCULATION REGS.      @D51MDGL 15200000
.*            R0    FOR SECTOR CALCULATION ALSO RETURN VALUE.  @D51MDGL 15240000
.*           R2/R3  VALUE REGISTERS FOR LAYER 2                @D51MDGL 15280000
.*           R4/R5  SAME            FOR LAYER 3                @D51MDGL 15320000
.*           R6     RETURN REGISTER SVC75                      @D51MDGL 15360000
.*                  CONTAINS MOSTLY DISPATCHER BASE            @D51MDGL 15400000
.*           R7     RETURN REGISTER LAYER 2                    @D51MDGL 15440000
.*           R8     RETURN REGISTER LAYER 3                    @D51MDGL 15480000