         MACRO                                                          00015161
&NAME    SGTAP &SUBJ,&CODE=,&OUTPUT=,&I=,&O=,&W=,&E0=,&E4=,&E8=,&NR=    00030261
.*/**********************************************************           00045361
.*                                                          *           00060461
.*      IBM VIRTUAL STORAGE EXTENDED  (VSE)                 *           00075561
.*      COMPONENT: 5686-066-06                              *           00090661
.*      LICENSED MATERIALS - PROPERTY OF IBM                *           00120861
.*      "RESTRICTED MATERIALS OF IBM"                       *           00135961
.*      5686-066                                            *           00158051
.*      (C) COPYRIGHT IBM CORP. 1979, 2002                  *           00158051
.*                                                          *           00181261
.************************************************************/          00196361
.*                                                                      00211461
         GBLB  &IJBSGEN         IN SUPERVISOR                  @D66ODOW 00226561
         GBLB  &BGDEBUG         DEBUG OPTION                            00226561
         GBLB  &SGTAP           PRINT CONTROL SWITCH                    00241661
.*                                                                      00256761
         LCLC  &STRING,&TEST                                            00271861
         LCLC  &STRING1,&STRING2,&STRING3 FOR HANDLING OF               00286961
         LCLA  &COUNT1,&ROF,&X,&Y         INTERNAL CALLS.               00302061
         LCLC  &RX,&D,&LABEL,&LABSUF                                    00317161
.*                                                                      00332261
         ACTR  4000             PREVENT ASSEMBLY LOOP                   00347361
.*                                                                      00362461
.**************************************************************#SECURGL 00377561
    AIF  (T'&SUBJ EQ 'O').T000000       IF EXPANSION FOR TEST *#SECURGL 00392661
    AIF  ('&SUBJ'(1,1) NE '''').T000000 OF REGISTER CONVENTION*#SECURGL 00407761
&TEST    SETC   '&SUBJ'(2,K'&SUBJ-2)    TAKE FIRST SUBJECT AND*#SECURGL 00422861
    AGO  .LUCCB                         GOTO FIRST TEST       *#SECURGL 00437961
.T000000 ANOP *************************************************#SECURGL 00453061
 AIF   ('&CODE'   EQ  'YES').TPCOD01                           @D61SDJK 00478151
         AIF   (NOT &SGTAP).TAP0100                                     00498361
         PRINT GEN                                                      00513461
.TAP0100 EJECT                                                          00528561
.*                                                                      00543661
.* /* START OF SPECIFICATIONS ***************************************** 00558761
.*                                                                      00573861
.*01* MODULE TYPE = SYSTEM GENERATION MACRO                             00619161
.*                                                                      00634261
.*01* DESCRIPTIVE NAME = 3480-TYPE AND TPA TAPE ERP                     00650351
.*                                                                      00651341
.*01* AMODE CONSIDERATIONS:                                             00652331
.*    THIS MACRO IS INCLUDED IN TWO PHASES TO SAVE SPACE BELOW THE      00653321
.*    16 MEGABYTE BOUNDARY. THE INVOCATION IN THE SUPERVISOR EXPANDS    00654311
.*    FIVE GLOBAL DATA AREAS >TERGLOB<. THIS WAS REQUIRED TO HAVE       00655301
.*    ALL CCBS AND CCW CHAINS BELOW 16 MB. ALL OTHER DATA ARE ALSO      00656291
.*    CONTAINED IN THIS AREA WHICH FACILITATES DEBUGGING. FURTHER-      00657281
.*    MORE, THE WORK ERROR ENTRIES USED FOR RECORDING PURPOSES AND      00658271
.*    THE ENTRY POINTS FOR SUPERVISOR ROUTINES ARE EXPANDED IN THE      00659261
.*    RESIDENT PART OF THE SUPERVISOR.                                  00660251
.*    THE INVOCATION IN PHASE $IJBTAP EXPANDS THE CODE, THE STACK       00661241
.*    AREA AND A WRAP AROUND DEBUG AREA. THE CODE RUNS IN AMODE 31.     00662231
.*                                                                      00664461
.*01* NOTES = CHANGE ACTIVITY                                           00679561
.*    @ DENOTES CHANGE ACTIVITY FLAG. D IS SYSTEM                       00694661
.*    IDENTIFIER FOR VSE. MEANING OF THE THIRD                          00709761
.*    CHARACTER IS - A = APAR, Y = APAR                                 00724861
.*    OTHER CHARACTERS ARE FOR IBM INTERNAL USE.                        00739961
.*                                                                      00755061
.*01* CHANGE ACTIVITY = AS FOLLOWS                                      00770161
.*    RESIDENT 3480-TYPE TAPE ERP                              @D61NDJK 00785261
.*    MOVE PART OF RESIDENT TAPE ERP INTO 31-BIT SVA           @D61SDJK 00797261
.*    SUPPORT OF TPA TAPE DEVICE                               @D61SDJK 00798261
.*    RECONLY REQUESTS MUST BE MARKED AS UNSOLICITED           @D63HDJK 00798264
.*    MESSAGES FOR SIMS AND MIMS MUST BE HIGHLIGHTED           @D63HDJK 00798266
.*    MORE THAN 255 TASKS                                      @D66ADAP 00800361
.*                                                                              
.*    08/22/95 SWITCH ON RECONLY FOR ASYNCHRONOUS RECORDING    @DA43606 00792261
.*    09/15/95 DON'T SET OPINTV IN PUBCSFLG IN CASE OF         @DA43697 00794261
.*             INTERVENTION REQUIRED ERROR CONDITIONS          @DA43697 00796261
.*    CCB BYTE 8 HOLDS ASCII LABEL INFORMATION FOR USER TASKS  @DA44407 00798262
.*    TAPE LABEL PROCESSING IS INDICATED IN CCB BYTE 12, BIT 4 @DA44407 00798263
.*    3590 UCODE ENHANCEMENTS (UCODE LEVEL 1.8.8.0)            @DA44364 00798264
.*    PREVENT CHANNEL PROGRAM LOOP FOR ERP RETRY FAILURE       @DY45299 00800361
.*    LOCATE BLOCK CANCELLED WITH 0P20I                        @DY45580         
.*    PROVIDE PROPER MESSAGE NUMBER FOR ERA=X'50'              @DY45817 00798266
.*    PREVENT DEVICE CLEANER SIM TO BE HIGHLIGHTED WHEN LM     @DY45817 00798266
.*    ENSURE $IJBTAP RELOCATION BETWEEN TERIOSAV & TERIORET    @DY45909         
.*    MSG 0P20I RECOVY ERROR DURING UNLOADING A 3590 DEVICE    @DY46166         
.*                                                                      00800361
.* ** END OF SPECIFICATIONS **************************************** */ 00815461
.*                                                                      00845661
*********************************************************************** 00860761
*                                                                     * 00875861
*              RESIDENT 3480-TYPE AND TPA TAPE ERP                    * 00897951
*                                                                     * 00906061
* FUNCTION                                                            * 00921161
*                                                                     * 00936261
*    THE FUNCTION OF THE NEW TAPE ERP IS TO RECOVER FROM              * 00961351
*    I/O ERRORS OCCURRING ON 3480-TYPE AND TPA TAPE DEVICES.          * 00971341
*                                                                     * 00981561
* ENTRY POINTS                                                        * 00996661
*                                                                     * 01011761
*      TER0000     - NORMAL ENTRY POINT WHEN A NEW TAPE ERROR IS      * 01026861
*                    PASSED TO TAPE ERP.                              * 01041961
*      TERIO000    - ENTRY POINT IF SGTAP RECOVERY I/O WAS POSTED.    * 01057061
*                                                                     * 01072161
* EXITS                                                               * 01073161
*                                                                     * 01074161
*    WHEN THE ERP TASK HAS NO MORE ERRORS TO PROCESS THE EXIT         * 01075161
*    IS UNPOST (THIS EXIT SHOULD NEVER BE USED SINCE SGERP WOULDN'T   * 01075761
*    PASS CONTROL TO SGTAP IN SUCH A CASE).                           * 01076361
*                                                                     * 01077161
*    WHEN A RECOVERY I/O REQUEST HAS BEEN ISSUED, SGTAP IS LEFT       * 01078161
*    TO ERPINSEL (WHICH IS A LABEL IN SGERP OF THE SUPERVISOR)        * 01079161
*    FOR FURTHER PROCESSING OF OTHER DEVICE ERROR ENTRIES.            * 01080161
*                                                                     * 01081161
*    ONCE AN ERROR HAS BEEN PROCESSED, SGTAP IS LEFT TO TAPEXIT       * 01082166
*    (WHICH IS A LABEL IN SGERP OF THE SUPERVISOR).                   * 01082171
*                                                                     * 01082176
*********************************************************************** 01082181
         EJECT                                                          01082186
*XXXXXXXXXXXXXXXXXXXXXXXXXXXXXXXXXXXXXXXXXXXXXXXXXXXXXXXXXXXXXXXXXXXXX* 01082191
*                                                                     * 01082196
*                      SGTAP INITIALIZATION                           * 01082201
*                                                                     * 01082206
*XXXXXXXXXXXXXXXXXXXXXXXXXXXXXXXXXXXXXXXXXXXXXXXXXXXXXXXXXXXXXXXXXXXXX* 01082211
*                                                              @D61NDJK 01082216
         DC    CL8'SGTAP   '                                   @D61NDJK 01082221
*#SERVICELEVEL                                                 @D61NDJK 01082226
         DC    CL8'DY46166'       CHANGE ACTIVITY              @DY46166 01082238
         SPACE 1                                               @D61NDJK 01082246
TER0000  DS    0H'0'              ENTRY POINT                  @D61NDJK 01082251
         BALR  RC,0               SET UP BASE ADDRESS          @D61NDJK 01082256
         BCTR  RC,0               ADJUST BASE POINTER          @D61NDJK 01082261
         BCTR  RC,0               ADJUST BASE POINTER          @D61NDJK 01082266
         USING TER0000,RC         MAIN ROUTINE ADDRESSABILITY  @D61NDJK 01082271
*                                                              @D61NDJK 01082276
*------------------------------------------------------------* @D61NDJK 01082281
*                                                              @D61NDJK 01082286
*   FIND A FREE GLOBAL WORK AREA WHERE THE ERROR CONDITION     @D61NDJK 01082291
*   CAN BE PROCESSED. IT SHOULDN'T BE POSSIBLE THAT ALL        @D61NDJK 01082296
*   GLOBAL WORK AREAS ARE USED UP, SINCE SGERP WOULDN'T        @D61NDJK 01082301
*   BRANCH INTO SGTAP THEN.                                    @D61NDJK 01082306
*                                                              @D61NDJK 01082311
*------------------------------------------------------------* @D61NDJK 01082316
*                                                              @D61NDJK 01082321
.*    IF THE NUMBER OF WORK AREAS SHOULD BE INCREASED IN       @D61NDJK 01082326
.*    FUTURE, ECB LIST ERPECBLS IN SUPERVISOR MACRO SGERP      @D61NDJK 01082331
.*    MUST BE EXTENDED ACCORDINGLY.                            @D61NDJK 01082336
.*                                                             @D61NDJK 01082341
         L     RA,TERAGLB1          GLOBAL WORK AREA           @D61NDJK 01082351
         USING TERGLOB,RA         GET ADDRESS OF FIRST..       @D61NDJK 01082346
         LA    R7,TERGLOBN        LOAD NUMBER OF WORK AREAS    @D61NDJK 01082356
TER0050  TM    TERFLG,TERCVGAU    GLOBAL WORK AREA IS IN USE?  @D61NDJK 01082361
         BZ    TER0100            NO, USE THAT WORK AREA       @D61NDJK 01082366
 SGTAP  'SGCOV ERPT610',NR=(00,0) FIRST GLOBAL WORK AREA IN USE    INIT 01082371
         LA    RA,TERGWAL(,RA)    POINT TO NEXT GLOBAL WORK..  @D61NDJK 01082376
         BCT   R7,TER0050           AREA AND CHECK AGAIN       @D61NDJK 01082381
*                                                              @D61NDJK 01082386
         BAL   R5,SYSERROR        ALL WORK AREAS ARE USED !!   @D61NDJK 01082391
TERAGLB1 DC    A(TERGLOB1)        ADDRESS OF 1ST GLOBAL..      @D61NDJK 01082396
*                                   WORK AREA                  @D61NDJK 01082401
*------------------------------------------------------------* @D61NDJK 01082406
*                                                              @D61NDJK 01082411
*   IF THERE IS NO ERROR ENTRY IN THE ERP ERROR CHAIN, THEN    @D61NDJK 01082416
*   DEACTIVATE THE ERP TASK AND EXIT TO THE DISPATCHER.        @D61NDJK 01082421
*                                                              @D61NDJK 01082426
*------------------------------------------------------------* @D61NDJK 01082431
*                                                              @D61NDJK 01082436
.*    THIS SHOULD NEVER OCCUR SINCE SGERP WOULDN'T HAVE        @D61NDJK 01082441
.*    PASSED CONTROL TO SGTAP IN THAT CASE.                    @D61NDJK 01082446
.*                                                             @D61NDJK 01082451
TER0100  L     R5,AERBLOC         ERBLOC BASE ADDRESS          @D61NDJK 01082456
         USING ERBLOC,R5          ERBLOC BASE                  @D61NDJK 01082461
         L     R2,ERPERCHN        GET NEXT ERROR ENTRY ADDRESS @D61NDJK 01082466
         LTR   R2,R2              IS ANY ERROR ENQUEUED        @D61NDJK 01082471
         BNZ   TER0200            YES,                         @D61NDJK 01082476
 SGTAP  'SGCOV ERPT610',NR=(00,1) NO ERROR ENTRY IS QUEUED         INIT 01082486
         L     R6,DISPAD          DISPATCHER BASE ADDRESS      @D61NDJK 01082491
         USING DISP,R6            DISP BASE POINTER            @D61NDJK 01082496
         SGSETUP UNPOST,STASK=ERP,WR1=R2 DEACTIVATE ERP TASK   @D61NDJK 01082501
         BR    R6                 =========================>>> @D61NDJK 01082506
         DROP  R6                 RELEASE DISP BASE            @D61NDJK 01082511
*                                                              @D61NDJK 01082516
*------------------------------------------------------------* @D61NDJK 01082521
*                                                              @D61NDJK 01082526
*   IF THE NEW ERROR ENTRY WAS BUILT FOR AN I/O FAILURE ON     @D61NDJK 01082531
*   A SGTAP I/O REQUEST, THE ENTRY WILL BE DEACTIVATED AND     @D61NDJK 01082536
*   DEQUEUED FROM THE ERP ERROR CHAIN.                         @D61NDJK 01082541
*                                                              @D61NDJK 01082546
*------------------------------------------------------------* @D61NDJK 01082551
*                                                              @D61NDJK 01082556
.*    THIS SHOULDN'T BE POSSIBLE SINCE IOINTER HAS IMPLEMENTED @D61NDJK 01082561
.*    A MECHANISM THAT PREVENTS ENQUEUING OF ERROR ENTRIES     @D61NDJK 01082566
.*    AFTER AN SGTAP I/O FAILURE.                              @D61NDJK 01082571
.*                                                             @D61NDJK 01082576
         USING ERBLKADR,R2        DEVICE-ERROR-ENTRY BASE      @D61NDJK 01082581
TER0200  ICM   R4,15,ERRQCHQA     GET AND TEST CHANQ ADDRESS   @D61NDJK 01082586
         BZ    TER0250            INTERRUPT IS UNSOLICITED     @D61NDJK 01082591
         USING CHQADR,R4          CHANQ BASE POINTER           @D61NDJK 01082596
         CLC   CHQTID,ERPTIDH     IS THIS AN ERP REQUEST       @D66ODOW 01082601
         BNE   TER0250            NO,                          @D61NDJK 01082606
         DROP  R4                                              @D61NDJK 01082611
 SGTAP  'SGCOV ERPT610',NR=(00,2) ERROR ENTRY IS CAUSED BY SGTAP   INIT 01082616
         MVC   ERPERCHN,ERBLKPTR  DEQUEUE AND DEACTIVATE..     @D61NDJK 01082621
         XC    ERBLKPTR,ERBLKPTR    TCB ERROR ENTRY FROM..     @D61SDJK 01082626
         NI    ERBLKFLG,XFF-ERQUEUED-ERACTIVE  ERP ERROR CHAIN @D61NDJK 01082631
         NI    ERBLKFL1,XFF-NEEDERP ERP IS NOT REQUIRED ANYMORE@D61SDJK 01082633
         MVC   CSW(8),ERRQCSW     SET UP PROPER LOW CORE CSW   @D61NDJK 01082636
         NI    CSW+4,XFF-UNITCK   SWITCH OFF UNIT CHECK        @D61NDJK 01082641
         DROP  R2                                              @D61NDJK 01082646
         L     R9,AINTER          LOAD IOINTER BASE REGISTER   @D61NDJK 01082651
         USING INTRTN,R9          DECLARE IOINTER BASE         @D61NDJK 01082656
         L     RF,ERPXAD1         TAKE DISPATCHER EXIT         @D61NDJK 01082661
         DROP  R9                 RELEASE IOINTER BASE         @D61NDJK 01082666
         L     R9,ERPBASE         LOAD SGERP BASE REGISTER     @D61NDJK 01082671
         USING SGERP,R9           DECLARE SGERP BASE           @D61NDJK 01082676
         LA    R5,TAPEXIT         SGERP ENTRY POINT            @D61NDJK 01082681
         BR    R5                 LEAVE SGTAP                  @D61NDJK 01082686
         DROP  R9                 RELEASE ERBLOC               @D61NDJK 01082691
*                                                              @D61NDJK 01082696
*------------------------------------------------------------* @D61NDJK 01082701
*   CLEAR HIGH ORDER BYTES AND SWITCH TO 31 BIT AMODE.         @D61NDJK 01082706
*------------------------------------------------------------* @D61NDJK 01082711
*                                                              @D61NDJK 01082716
TER0250  DS    0H                                              @D61NDJK 01082721
         LA    R2,0(,R2)          TURN OFF..                   @D61NDJK 01082726
         LA    R5,0(,R5)            UPPERMOST BYTE..           @D61NDJK 01082731
         LA    RA,0(,RA)            IN ALL USED..              @D61NDJK 01082736
         LA    RC,0(,RC)            REGISTERS                  @D61NDJK 01082741
*                                                              @D61NDJK 01082746
         AMODESW SET,AMODE=31,WR=(RF) ENTER 31-BIT ADDR. MODE  @D61NDJK 01082751
*                                                              @D61NDJK 01082756
*------------------------------------------------------------* @D61NDJK 01082761
*   RESET ALL DATA IN GLOBAL WORK AREA PART 1 AND OCCUPY       @D61NDJK 01082766
*   FREE GLOBAL WORK AREA.                                     @D61NDJK 01082771
*------------------------------------------------------------* @D61NDJK 01082776
*                                                              @D61NDJK 01082781
         XC    TERGWAP1(256),TERGWAP1                          @D61NDJK 01082786
         XC    TERGWAP1+256(TERGWAL1-256),TERGWAP1+256         @D61NDJK 01082791
         OI    TERFLG,TERCVGAU    OCCUPY THIS GLOBAL WORK AREA @D61NDJK 01082796
*                                                              @D61NDJK 01082801
*------------------------------------------------------------* @D61NDJK 01082806
*   ESTABLISH ADDRESSABILITY OF SGTAP STACK.                   @D61NDJK 01082811
*------------------------------------------------------------* @D61NDJK 01082816
*                                                              @D61NDJK 01082821
         LA    RD,TERTERSV        MAKE STACK ADDRESSABLE       @D61NDJK 01082826
         MVI   TERTERFF,X'FF'     SET END OF STACK INDICATION  @D61NDJK 01082831
*                                                              @D61NDJK 01082836
*------------------------------------------------------------* @D61NDJK 01082841
*                                                              @D61NDJK 01082846
*   THE ERROR ENTRY IS COPIED INTO THE GLOBAL WORK AREA,       @D61NDJK 01082851
*   IS IMMEDIATELY DEACTIVATED AND DEQUEUED FROM THE ERP       @D61NDJK 01082856
*   ERROR CHAIN AND THE ERROR CONDITION THAT IT REPRESENTS     @D61NDJK 01082861
*   HAS TO BE PROCESSED. TO PREVENT A TASK FROM CORRUPTING     @D61NDJK 01082866
*   THE ERP ERROR CHAIN, SGTAP MUST NOT LOSE CONTROL WHILE     @D61NDJK 01082871
*   IT IS REMOVING AN ERROR ENTRY FROM THE ERROR CHAIN.        @D61NDJK 01082876
*                                                              @D61NDJK 01082881
*------------------------------------------------------------* @D61NDJK 01082886
*                                                              @D61NDJK 01082891
         USING ERBLKADR,R2                                     @D61NDJK 01082896
         MVC   ERPERCHN,ERBLKPTR    DEQUEUE ORIGINAL ERROR..   @D61NDJK 01082901
         XC    ERBLKPTR,ERBLKPTR      ENTRY FROM ERP..         @D61NDJK 01082906
         NI    ERBLKFLG,XFF-ERQUEUED  ERROR CHAIN              @D61NDJK 01082911
         NI    ERBLKFL1,XFF-NEEDERP ERP IS NOT REQUIRED ANYMORE@D61SDJK 01082913
*                                   COPY ORIGINAL ERROR ENTRY..@D61NDJK 01082916
         MVC   TERINWRK,0(R2)         INTO WORK ERROR ENTRY    @D61NDJK 01082921
*                                   DEACTIVATE ORIGINAL ERROR..@D61NDJK 01082926
         NI    ERBLKFLG,XFF-ERACTIVE  ENTRY AND POINT TO..     @D61NDJK 01082931
         LA    R2,TERINWRK            THE WORK ERROR ENTRY     @D61NDJK 01082936
         DROP  R5                   RELEASE ERBLOC BASE        @D61NDJK 01082941
*                                                              @D61NDJK 01082946
*------------------------------------------------------------* @D61NDJK 01082951
*   GET ADDRESSABILITY TO THE PUB DEVICE ENTRY.                @D61NDJK 01082956
*------------------------------------------------------------* @D61NDJK 01082961
*                                                              @D61NDJK 01082966
         SLR   R3,R3              GET THE ADDRESS OF THE..     @D61SDJK 01082971
         ICM   R3,B'0011',ERRQPUB   PUB DEVICE ENTRY           @D61NDJK 01082976
         BNZ   TER0300                                         @D61NDJK 01082981
         BAL   R5,SYSERROR                                     @D61NDJK 01082986
*                                                              @D61NDJK 01082991
         USING PUBADR,R3                                       @D61NDJK 01082996
*                                                              @D61NDJK 01083001
*------------------------------------------------------------* @D61NDJK 01083006
*   DETERMINE DEVICE TYPE CODE OF FAILING DEVICE.              @D61NDJK 01083011
*------------------------------------------------------------* @D61NDJK 01083016
*                                                              @D61NDJK 01083021
TER0300  LR    R5,R3              COPY PUB POINTER             @D61NDJK 01083026
         SH    R5,YPUBTAB         GET OFFSET IN PUBTAB         @D61NDJK 01083031
         SRL   R5,1               DIVIDE BY TWO                @D61NDJK 01083036
         A     R5,APBXAREA        ADDRESS OF PUBX ADDRESSES    @D61NDJK 01083041
         L     R5,0(R5)           GET PUBX POINTER             @D61NDJK 01083046
         ST    R5,TERAPUBX        SAVE PUBX POINTER            @D61NDJK 01083051
         USING PBXADR,R5          DECLARE PUBX BASE POINTER    @D61NDJK 01083056
         CLI   PUBDEVTY,TTPA      DEVICE IS A TPA?             @D61SDJK 01083061
         BNE   TER0305            NO                           @D61SDJK 01083066
         MVI   TERDEVTY,TERTPA    INDICATE TPA DEVICE TYPE     @D61SDJK 01083071
 SGTAP  'SGCOV ERPT610',NR=(00,3) IT IS A TPA DEVICE               INIT 01083076
         B     TER0400                                         @D61SDJK 01083086
*                                                              @D61SDJK 01083091
TER0305  CLI   PBXOBR+1,X'0C'     DEVICE IS A 3424?            @D61SDJK 01083096
         BNE   TER0310            NO                           @D61NDJK 01083101
         MVI   TERDEVTY,TER3424   INDICATE 3424 DEVICE TYPE    @D61NDJK 01083106
 SGTAP  'SGCOV ERPT610',NR=(00,4) IT IS A 3424 DEVICE              INIT 01083111
         B     TER0400                                         @D61NDJK 01083116
*                                                              @D61NDJK 01083121
TER0310  CLI   PBXOBR+1,X'0E'     DEVICE IS A 9348?            @D61NDJK 01083126
         BNE   TER0320            NO                           @D61NDJK 01083131
         MVI   TERDEVTY,TER9348   INDICATE 9348 DEVICE TYPE    @D61NDJK 01083136
 SGTAP  'SGCOV ERPT610',NR=(00,5) IT IS A 9348 DEVICE              INIT 01083141
         B     TER0400                                         @D61NDJK 01083146
*                                                              @D61NDJK 01083151
TER0320  MVI   TERDEVTY,TER3480   INDICATE 3480 DEVICE TYPE    @D61NDJK 01083156
         DROP  R5                 DROP PUBX BASE POINTER       @D61NDJK 01083161
*                                                              @D61NDJK 01083171
*------------------------------------------------------------* @D61NDJK 01083176
*   DETERMINE IF LIOCS WAS WORKING ON AN OPEN FILE WHEN        @D61NDJK 01083181
*   THE ORIGINAL ERROR CONDITION OCCURRED.                     @D61NDJK 01083186
*------------------------------------------------------------* @D61NDJK 01083191
*                                                              @D61NDJK 01083196
TER0400  LR    R5,R3              COPY PUB POINTER             @D61NDJK 01083201
         SH    R5,YPUBTAB         GET OFFSET IN PUBTAB         @D61NDJK 01083206
         SRL   R5,PUBSLEN-2       ADJUST FOR PUB2 INDEX        @D61NDJK 01083211
         A     R5,APB2AREA        GET PUB2 INDEX FROM TABLE    @D61NDJK 01083216
         L     R5,0(,R5)          GET ADDRESS OF PUB2          @D61NDJK 01083221
         ST    R5,TERAPUB2        SAVE PUB2 POINTER            @D61SDJK 01083226
         USING PUB2ADR,R5         DECLARE PUB2 BASE            @D61NDJK 01083231
         TM    P2FLAGS,P2OPEN     FILE WAS OPEN?               @D61NDJK 01083236
         BZ    TER0500            NO                           @D61NDJK 01083241
         OI    TEROEFLG,TEROEFOP  INDICATE OPEN FILE           @D61NDJK 01083246
 SGTAP  'SGCOV ERPT610',NR=(00,6) P2OPEN IS SET                    INIT 01083251
         DROP  R5                 RELEASE PUB2 BASE            @D61NDJK 01083261
*                                                              @D61NDJK 01083266
*------------------------------------------------------------* @D61NDJK 01083271
*   DETERMINE IF ERP IS PROCESSING AT THE MINIMAL ERP LAYER.   @D61NDJK 01083276
*------------------------------------------------------------* @D61NDJK 01083281
*                                                              @D61NDJK 01083286
.*    THE MEANING OF THE RECONLY BIT IS: "THE USER HAS BEEN    @D61NDJK 01083291
.*    POSTED ALREADY". THIS IMPLIES THAT HIS DATA CAN NOT      @D61NDJK 01083296
.*    BE ACCESSED ANYMORE. THE BIT MAY NEVER BE SET OFF BY     @D61NDJK 01083301
.*    SGTAP, WHEN SGTAP IS ENTERED AND RECONLY IS SET,         @D61NDJK 01083306
.*    SOME RECORDING MAY BE DONE, IF APPROPRIATE, BUT USER     @D61NDJK 01083311
.*    DATA LIKE CCB OR CCW MUST NOT BE TOUCHED.                @D61NDJK 01083316
.*                                                             @D61NDJK 01083321
TER0500  TM    ERRQFLG,RECONLY    MINIMAL ERP LAYER?           @D61NDJK 01083326
         BNO   TER0600            NO                           @D61NDJK 01083331
 SGTAP  'SGCOV ERPT610',NR=(00,7) RECORDING ONLY REQUEST           INIT 01083336
         OI    TEROEFLG,TEROEMEL  INDICATE MINIMAL ERP LAYER   @D61NDJK 01083341
*                                                              @D61NDJK 01083346
*------------------------------------------------------------* @D61NDJK 01083351
*   REMEMBER THE I/O REQUESTOR FROM THE CHANQ WHEN IT IS       @D61NDJK 01083356
*   AVAILABLE.                                                 @D61NDJK 01083361
*------------------------------------------------------------* @D61NDJK 01083366
*                                                              @D61NDJK 01083371
TER0600  ICM   R4,15,ERRQCHQA     GET AND TEST CHANQ ADDRESS   @D61NDJK 01083376
         BZ    TER0650            INTERRUPT IS UNSOLICITED     @D61NDJK 01083381
         USING CHQADR,R4                                       @D61NDJK 01083386
         TM    TEROEFLG,TEROEMEL  IT IS A RECONLY REQUEST?     @D61NDJK 01083391
         BO    TER0750            YES                          @D61NDJK 01083396
         OC    ERRQCCB+1(3),ERRQCCB+1 TASK IS STILL EXISTING?  @D61NDJK 01083401
         BZ    TER0720            NO                           @D61SDJK 01083406
         B     TER0700            YES                          @D61NDJK 01083411
*                                                              @D61NDJK 01083416
TER0650  OI    TEROEFLG,TEROEUIC  INDICATE UNSOLICITED INTERR. @D61NDJK 01083421
 SGTAP  'SGCOV ERPT610',NR=(01,0) INTERRUPT IS UNSOLICITED         INIT 01083426
         B     TER0750                                         @D61NDJK 01083431
*                                                              @D61NDJK 01083436
*------------------------------------------------------------* @D61NDJK 01083441
*   SET ERP'S SERVICE OWNER TO ERP TASK WHEN PROCCESSING IS    @D61NDJK 01083446
*   AT MINIMAL ERP LAYER OR WHEN THE SERVICE OWNER ID IS NOT   @D61NDJK 01083451
*   AVAILABLE. OTHERWISE SET ERP'S SERVICE OWNER TO THE        @D61NDJK 01083456
*   APPROPRIATE TASK ID.                                       @D61NDJK 01083461
*------------------------------------------------------------* @D61NDJK 01083466
*                                                              @D61NDJK 01083471
TER0700  MVC   TERCHQID,CHQTID    REMEMBER THE REQUESTOR       @D66ODOW 01083476
         B     TER0770                                         @D61NDJK 01083481
*                                                              @D61SDJK 01083486
TER0720  OI    TEROEFLG,TEROEPST  USER CCB IS ALREADY POSTED   @D61SDJK 01083491
TER0750  SLR   R4,R4              PROCESS AS UNSOLICITED       @D61NDJK 01083501