*%GOTO  MSIDSTR; /*PLS COMMENT TO AVOID UNMATCHED QUOTE PROBLEMS        00050000
         MACRO                                                          00100000
&NAME    SIDSTR &PRFX=                                                  00150000
         LCLC   &C                                                      00200000
.*       IBM DISK OPERATING SYSTEM                            *         00250000
*        SUPERVISOR - SIDSTR - 5686-032-06                    *         00300052
         AGO   .ZZZ                                           *         00350000
*        THIS MACRO IS "RESTRICTED MATERIALS OF IBM"          *         00400000
*        5686-032 (C) COPYRIGHT IBM CORP. 1984, 1992          *         00450052
*        LICENSED MATERIALS-PROPERTY OF IBM                   *         00550000
*        SEE COPYRIGHT INSTRUCTIONS                           *         00600052
.ZZZ     ANOP                                                 *         00650000
&C       SETC  '&PRFX'                                                  00700000
         AIF   (K'&PRFX LE 3).PRFXOK                                    00750052
         MNOTE 3,'PREFIX WITH MORE THAN 3 CHARACTERS IS IGNORED'        00800052
&C       SETC  ''                                                       00850000
.PRFXOK  ANOP                                                           00900000
         SPACE 1                                                        00950000
* * * * * * * * * * * * * * * * * * * * * * * * * * * * * * * * * * * * 01000000
*        SPACE CONTROL BLOCK ADDRESS TABLE                            * 01050000
* * * * * * * * * * * * * * * * * * * * * * * * * * * * * * * * * * * * 01100000
         SPACE 1                                                        01150000
         AIF   (T'&NAME EQ 'O').NONAME                                  01200000
&NAME    DS    0F                                                       01250000
         AGO   .NAME                                                    01300000
.NONAME  ANOP                                                           01350000
SIDSTR   DS    0F                 STRING OF VALID SPACE IDS             01400000
.NAME    ANOP                                                           01450000
&C.SIDRI DS    0XL4               REAL SPACE INFORMATION       @D52VDMZ 01475052
&C.SIDR  DC    CL2'R '            IDENTIFIER FOR REAL SPACE             01500000
&C.SIDRP DC    CL2'  '            NO DEFAULT PART. FOR REAL SP.@D52VDMZ 01516652
SIDSTRD  DS    0XL4               STRING OF VALID DEF SPACES   @D52VDMZ 01533252
&C.SID0I DS    0XL4               SPACE 0 INFORMATION          @D52VDMZ 01549852
&C.SID0  DC    CL2'0 '            IDENTIFIER FOR SPACE 0                01566452
&C.SID0P DC    CL2'BG'            DEFAULT PARTITION FOR SPACE 0@D52VDMZ 01583052
&C.SEVM  EQU   *                                                        01600000
&C.SID1I DS    0XL4               SPACE 1 INFORMATION          @D52VDMZ 01610052
&C.SID1  DC    CL2'1 '            IDENTIFIER FOR SPACE 1                01620052
&C.SID1P DC    CL2'F1'            DEFAULT PARTITION FOR SPACE 1@D52VDMZ 01630052
&C.SID2I DS    0XL4               SPACE 2 INFORMATION          @D52VDMZ 01640052
&C.SID2  DC    CL2'2 '            IDENTIFIER FOR SPACE 2                01650000
&C.SID2P DC    CL2'F2'            DEFAULT PARTITION FOR SPACE 2@D52VDMZ 01666652
&C.SID3I DS    0XL4               SPACE 3 INFORMATION          @D52VDMZ 01683252
&C.SID3  DC    CL2'3 '            IDENTIFIER FOR SPACE 3       @D218DKH 01699852
&C.SID3P DC    CL2'F3'            DEFAULT PARTITION FOR SPACE 3@D52VDMZ 01716452
&C.SID4I DS    0XL4               SPACE 4 INFORMATION          @D52VDMZ 01733052
&C.SID4  DC    CL2'4 '            IDENTIFIER FOR SPACE 4       @D218DKH 01750000
&C.SID4P DC    CL2'F4'            DEFAULT PARTITION FOR SPACE 4@D52VDMZ 01766652
&C.SID5I DS    0XL4               SPACE 5 INFORMATION          @D52VDMZ 01783252
&C.SID5  DC    CL2'5 '            IDENTIFIER FOR SPACE 5       @D218DKH 01800000
&C.SID5P DC    CL2'F5'            DEFAULT PARTITION FOR SPACE 5@D52VDMZ 01816652
&C.SID6I DS    0XL4               SPACE 6 INFORMATION          @D52VDMZ 01833252
&C.SID6  DC    CL2'6 '            IDENTIFIER FOR SPACE 6       @D218DKH 01850000
&C.SID6P DC    CL2'F6'            DEFAULT PARTITION FOR SPACE 6@D52VDMZ 01866652
&C.SID7I DS    0XL4               SPACE 7 INFORMATION          @D52VDMZ 01883252
&C.SID7  DC    CL2'7 '            IDENTIFIER FOR SPACE 7       @D218DKH 01900000
&C.SID7P DC    CL2'F7'            DEFAULT PARTITION FOR SPACE 7@D52VDMZ 01916652
&C.SID8I DS    0XL4               SPACE 8 INFORMATION          @D52VDMZ 01933252
&C.SID8  DC    CL2'8 '            IDENTIFIER FOR SPACE 8       @D218DKH 01950000
&C.SID8P DC    CL2'F8'            DEFAULT PARTITION FOR SPACE 8@D52VDMZ 01958352
&C.SID9I DS    0XL4               SPACE 9 INFORMATION          @D52VDMZ 01966652
&C.SID9  DC    CL2'9 '            IDENTIFIER FOR SPACE 9       @D52VDMZ 01974952
&C.SID9P DC    CL2'F9'            DEFAULT PARTITION FOR SPACE 9@D52VDMZ 01983252
&C.SIDAI DS    0XL4               SPACE A INFORMATION          @D52VDMZ 01991552
&C.SIDA  DC    CL2'A '            IDENTIFIER FOR SPACE A       @D52VDMZ 01999852
&C.SIDAP DC    CL2'FA'            DEFAULT PARTITION FOR SPACE A@D52VDMZ 02008152
&C.SIDBI DS    0XL4               SPACE B INFORMATION          @D52VDMZ 02016452
&C.SIDB  DC    CL2'B '            IDENTIFIER FOR SPACE B       @D52VDMZ 02024752
&C.SIDBP DC    CL2'FB'            DEFAULT PARTITION FOR SPACE B@D52VDMZ 02033052
&C.SIDSI DS    0XL4               SPACE S INFORMATION          @D52VDMZ 02041352
&C.SIDS  DC    CL2'S '            IDENTIFIER FOR SHARED SPACE           02050000
&C.SIDSP DC    CL2'  '            NO DEFAULT PART. FOR SHARED  @D52VDMZ 02075052
&C.S370  EQU   *                                                        02100000
&C.SIDMX EQU   &C.SIDB                                         @D218DKH 02137552
&C.SIDM3 DC    AL1(13)            MAX.STATIC SPACE NO 370/ESA  @D218DKH 02175052
&C.SIDMD DC    AL1(12)            NO OF STATIC SPACES          @D52VDMZ 02212552
         MEND                                                           02250000
* END OF PLS COMMENT */ %MSIDSTR : ;                                    02300000
* DECLARE                                                               02350000
* 1  SIDSTR STATIC LOCAL, /* STRING OF VALID SPACE IDS               */ 02400000
*  2 SIDRI     CHAR(4),              /* REAL SPACE INFO      @D52VDMZ*/ 02450052
*   3 SIDR     CHAR(2)  INIT('R '),  /* IDENTIFIER FOR REAL SPACE    */ 02500052
*   3 SIDRP    CHAR(2),              /* NO DEF. PART. FOR RSP@D52VDMZ*/ 02550052
*  2 SIDSTRD,                        /* VALID DEF. SPACES    @D52VDMZ*/ 02600052
*  3 SID0I     CHAR(4),              /* SPACE 0 INFORMATION  @D52VDMZ*/ 02650052
*   4 SID0     CHAR(2)  INIT('0 '),  /* IDENTIFIER FOR SPACE 0       */ 02700052
*   4 SID0P    CHAR(2)  INIT('BG'),  /* DEF. PART. F. SPACE 0@D52VDMZ*/ 02750052
*  3  SEVM     CHAR(0),              /* END OF VM SPACES             */ 02800052
*  3 SID1I     CHAR(4),              /* SPACE 1 INFORMATION  @D52VDMZ*/ 02850052
*   4 SID1     CHAR(2)  INIT('1 '),  /* IDENTIFIER FOR SPACE 1       */ 02900052
*   4 SID1P    CHAR(2)  INIT('F1'),  /* DEF. PART. F. SPACE 1@D52VDMZ*/ 02950052
*  3 SID2I     CHAR(4),              /* SPACE 2 INFORMATION  @D52VDMZ*/ 03000052
*   4 SID2     CHAR(2)  INIT('2 '),  /* IDENTIFIER FOR SPACE 2       */ 03050052
*   4 SID2P    CHAR(2)  INIT('F2'),  /* DEF. PART. F. SPACE 2@D52VDMZ*/ 03100052
*  3 SID3I     CHAR(4),              /* SPACE 3 INFORMATION  @D52VDMZ*/ 03150052
*   4 SID3     CHAR(2)  INIT('3 '),  /* ID FOR SPACE 3       @D218DKH*/ 03200052
*   4 SID3P    CHAR(2)  INIT('F3'),  /* DEF. PART. F. SPACE 3@D52VDMZ*/ 03250052
*  3 SID4I     CHAR(4),              /* SPACE 4 INFO         @D52VDMZ*/ 03300052
*   4 SID4     CHAR(2)  INIT('4 '),  /* ID FOR SPACE 4       @D218DKH*/ 03350052
*   4 SID4P    CHAR(2)  INIT('F4'),  /* DEF. PART. F. SPACE 4@D52VDMZ*/ 03400052
*  3 SID5I     CHAR(4),              /* SPACE 5 INFO         @D52VDMZ*/ 03450052
*   4 SID5     CHAR(2)  INIT('5 '),  /* ID FOR SPACE 5       @D218DKH*/ 03500052
*   4 SID5P    CHAR(2)  INIT('F5'),  /* DEF. PART. F. SPACE 5@D52VDMZ*/ 03550052
*  3 SID6I     CHAR(4),              /* SPACE 6 INFO         @D52VDMZ*/ 03600052
*   4 SID6     CHAR(2)  INIT('6 '),  /* ID FOR SPACE 6       @D218DKH*/ 03650052
*   4 SID6P    CHAR(2)  INIT('F6'),  /* DEF. PART. F. SPACE 6@D52VDMZ*/ 03700052
*  3 SID7I     CHAR(4),              /* SPACE 7 INFO         @D52VDMZ*/ 03750052
*   4 SID7     CHAR(2)  INIT('7 '),  /* ID FOR SPACE 7       @D218DKH*/ 03800052
*   4 SID7P    CHAR(2)  INIT('F7'),  /* DEF. PART. F. SPACE 7@D52VDMZ*/ 03850052
*  3 SID8I     CHAR(4),              /* SPACE 8 INFO         @D52VDMZ*/ 03900052
*   4 SID8     CHAR(2)  INIT('8 '),  /* ID FOR SPACE 8       @D52VDMZ*/ 03950052
*   4 SID8P    CHAR(2)  INIT('F8'),  /* DEF. PART. F. SPACE 8@D52VDMZ*/ 04000052
*  3 SID9I     CHAR(4),              /* SPACE 9 INFO         @D52VDMZ*/ 04050052
*   4 SID9     CHAR(2)  INIT('9 '),  /* ID FOR SPACE 9       @D52VDMZ*/ 04100052
*   4 SID9P    CHAR(2)  INIT('F9'),  /* DEF. PART. F. SPACE 9@D52VDMZ*/ 04150052
*  3 SIDAI     CHAR(4),              /* SPACE A INFO         @D52VDMZ*/ 04200052
*   4 SIDA     CHAR(2)  INIT('A '),  /* ID FOR SPACE A       @D52VDMZ*/ 04250052
*   4 SIDAP    CHAR(2)  INIT('FA'),  /* DEF. PART. F. SPACE A@D52VDMZ*/ 04300052
*  3 SIDBI     CHAR(4),              /* SPACE B INFO         @D52VDMZ*/ 04350052
*   4 SIDB     CHAR(2),              /* ID FOR SPACE B       @D52VDMZ*/ 04400052
*   5 SIDMX    CHAR(2)  INIT('B '),  /* ID FOR SPACE MAX     @D52VDMZ*/ 04450052
*   4 SIDBP    CHAR(2)  INIT('FB'),  /* DEF. PART. F. SPACE B@D52VDMZ*/ 04500052
*  2 SIDSI     CHAR(4),              /* SPACE S INFO         @D52VDMZ*/ 04550052
*   3 SIDS     CHAR(2)  INIT('S '),  /* IDENTIFIER FOR SHARED SPACE  */ 04600052
*   3 SIDSP    CHAR(2),              /* NO DEF. PART F. SHAR.@D52VDMZ*/ 04650052
*  2  S370     CHAR(0),              /* END OF /370|ESA SPACES       */ 04700052
*  2  SIDM3    FIXED(8) INIT(13),    /* MAX. STATIC SP NO IN 370/ESA */ 04750052
*  2  SIDMD    FIXED(8) INIT(12);    /* NO OF STATIC SPACES  @D52VDMZ*/ 04800052
