*% GOTO LEAVEPLS ;  /*   PL/S COMMENT COVERING ASSEMBLER CODE           00050000
      MACRO                                                             00100000
&NAME    SLEAVE &RETADD=,&CODE=LIBR,                                   *00150052
               &RETCOD=                                                 00200000
.*                                                                      00250000
         LCLA  &FC                            FUNCTION CODE             00300000
.*                                                                      00350000
***************************************************************         00400000
*                                                             *@D51MDGL 00450000
.*       IBM VSE / ADVANCED FUNCTIONS                         *@D51MDGL 00500000
*        SUPERVISOR - SLEAVE - 5686-007-06-C440               *@D31UDGN 00550000
.*                                                                      00600000
         AGO   .CPRIGHT                                                 00650000
.*                                                                      00700000
*        LICENSED MATERIALS - PROGRAM PROPERTY OF IBM         *@D51MDGL 00750000
*        THIS MACRO IS "RESTRICTED MATERIALS OF IBM"          *@D51MDGL 00800000
*        5686-007 (C) COPYRIGHT IBM CORP. 1979, 1989          *@D31UDGN 00850000
*        SEE COPYRIGHT INSTRUCTIONS                           *@D51MDGL 00900000
.*                                                                      00950000
.CPRIGHT ANOP                                                           01000000
*                                                             *@D51MDGL 01050000
***************************************************************         01100000
.*                                                                      01150000
.**** START OF SPECIFICATIONS ***************************************** 01200000
.*                                                                      01250000
.*01* MODULE-TYPE = MACRO                                               01300000
.*                                                                      01350000
.*01* DESCRIPTIVE NAME = RELEASE CAPABILITY CURRENTLY ASSOCIATED WITH   01400000
.*                       ISSUING TASK.                                  01450000
.*                                                                      01500000
.*  STATUS           =  NEW MACRO - FIRST RELEASE 2.1                   01550000
.*  FUNCTION         =  THE MACRO CHECKS THE USER SUPPLIED              01600000
.*                      OPERANDS AND SETS THE CORRESPONDING             01650000
.*                      FUNCTION CODE FOR SVC107.                       01700000
.*  NOTES            =  NONE                                            01750000
.*  DEPENDENCIES     =  NONE                                            01800000
.*  RESTRICTIONS     =  NONE                                            01850000
.*  REGISTER CONVENT.=  REGISTER 14 RETURN ADDRESS FOR INPUT/OUTPUT     01900000
.*                                  OR ZERO                             01950000
.*                      REGISTER 15 INPUT: FUNCTION CODE                02000000
.*                                  OUTPUT : RETURN CODE                02050000
.*                      REGISTER  0 INPUT: RETURN CODE                  02100000
.*  PATCH LABEL      =  NONE                                            02150000
.*  MACRO TYPE       =  BILINGUAL                                       02200000
.*  PROCESSOR        =  ASM/PLS                                         02250000
.*  MACRO SIZE       =                                                  02300000
.*  ATTRIBUTES       =  NONE                                            02350000
.*  ENTRY POINT      =  SLEAVE                                          02400000
.*  PURPOSE          =  SEE FUNCTION                                    02450000
.*  LINKAGE          =  SEE INPUT                                       02500000
.*  CALLER           =                                                  02550000
.*  INPUT            =                                                  02600000
.*                                                                      02650000
.*                                                                      02700000
.*  CALLING SEQUENCE  ASSEMBLER :                                       02750000
.*                                                                      02800000
.*        LABEL   SLEAVE ( RETADD= NAME1 | (R1) | (14) )                02850000
.*                      ( RETCOD= NAME2 | (R2) | (0) )                  02900000
.*                                                                      02950000
.*  CALLING SEQUENCE  PLS :                                             03000000
.*                                                                      03050000
.*      ? LABEL:  SLEAVE  (RETADD(NAME1)|(R1)|(14))                     03100000
.*                        (RETCOD(NAME2)|(R2)|(0);)                     03150000
.*                                                                      03200000
.*                                                                      03250000
.*  OUTPUT(ASSEMBLER)= NECESSARY INSTRUCTIONS TO LOAD                   03300000
.*                     REGISTER 0,14 AND 15                             03350000
.*                     AND TO GENERATE SVC 107                          03400000
.*                                                                      03450000
.*                     FUNCTION CODES USED FOR SLEAVE X'47'             03500000
.*                                                                      03550000
.*                                                                      03600000
.*  MACROS GENERATING SVC 107 :                                         03650000
.*         GETFLD,   MODFLD,   TREADY,   TSTOP,   RLOCK,                03700000
.*         SRCHFLD,  DEVUSE,   DEVREL,   SENTER,   SLEAVE,              03750000
.*         VIOPOINT                                                     03800000
.*                                                                      03850000
.*   ====> CHECK SUPERVISOR GENERATION MACRO SGTINF FOR HIGHEST USED    03900000
.*   ====> FUNCTION CODE WHEN EXTENDING SLEAVE                          03950000
.*                                                                      04000000
.*  OUTPUT(EXECUTION)=                                                  04050000
.*                                                                      04100000
.*  EXIT NORMAL      =  COMPILER :                                      04150000
.*                      MACRO EXPANSION                                 04200000
.*                      EXECUTION:                                      04250000
.*                      CONTROL RETURNED TO USER                        04300000
.*                                                                      04350000
.*  EXIT ERROR       =  COMPILER :                                      04400000
.*                      MNOTES INDICATING THE ERROR                     04450000
.*                      EXECUTION:                                      04500000
.*                      PHASE DEPENDENT                                 04550000
.*                                                                      04600000
.*                                                                      04650000
.*  EXTERNAL REFEREN.=  NONE                                            04700000
.*  ROUTINES         =  SVC 107 (SUPERVISOR GENERATION MACRO SGTINF)    04750000
.*  DATA AREAS       =  NONE                                            04800000
.*  CONTROL BLOCKS   =  NONE                                            04850000
.*  TABLES           =  NONE                                            04900000
.*  MACROS           =  NONE                                            04950000
.*  CHANGE ACTIVITIES=  NEW MACRO   FIRST RELEASE 2.1                   05000000
.*  MODIFIED REGISTER=  REGISTER 0,14 AND 15                            05050000
.*                                                                      05100000
.*  A000000-999999                                             @D14CDWK 05150000
.*                                                                      05200000
.** END OF SPECICATIONS *********************************************** 05250000
.*                                                                      05300000
&FC      SETA  157                            FC FOR SLEAVE CODE=ALET   05310052
         AIF   ('&CODE' EQ   'ALET').SETNAME                            05320052
&FC      SETA  71                             FC FOR SLEAVE CODE=LIBR   05330052
         AIF   ('&CODE' NE   'LIBR').NOTE02                             05340052
         AIF   ('&RETADD' EQ '(0)').NOTE01                              05350000
.*                                                                      05450000
.SETNAME ANOP                                                  @DERPDGL 05475052
&NAME    DC    0H'0'                                                    05500000
.*                                                                      05550000
.*--------------------------------------------------------------------- 05600000
.*       CHECK AND SET RETCOD OPERAND                                   05650000
.*--------------------------------------------------------------------- 05700000
.*                                                                      05750000
         AIF   (T'&RETCOD EQ 'O').SETCOD                                05800000
         AIF   ('&RETCOD' EQ '(0)').CHKRET                              05850000
         AIF   ('&RETCOD'(1,1) EQ '(').CODREG                           05900000
         L     0,&RETCOD                      LOAD RETURN CODE          05950000
         AGO   .CHKRET                                                  06000000
.CODREG  ANOP                                                           06050000
         LR    0,&RETCOD(1)                   LOAD RETURN CODE          06100000
         AGO   .CHKRET                                                  06150000
.SETCOD  ANOP                                                           06200000
         SLR   0,0                            ZERO RETURN CODE          06250000
.*                                                                      06300000
.*--------------------------------------------------------------------- 06350000
.*       CHECK AND SET RETADD OPERAND                                   06400000
.*--------------------------------------------------------------------- 06450000
.*                                                                      06500000
.CHKRET  ANOP                                                           06550000
         AIF   (T'&RETADD EQ 'O').SETR14                                06600000
         AIF   ('&CODE' EQ 'ALET').NOTE03                               06625052
         AIF   ('&RETADD' EQ '(14)').SETFUN                             06650000
         AIF   ('&RETADD'(1,1) EQ '(').RETREG                           06700000
         L     14,&RETADD                     LOAD RETURN ADDRESS       06750000
         AGO   .SETFUN                                                  06800000
.RETREG  ANOP                                                           06850000
         LR    14,&RETADD(1)                  LOAD RETURN ADDRESS       06900000
         AGO   .SETFUN                                                  06950000
.SETR14  AIF   ('&CODE' EQ 'ALET').SETFUN                               07000052
         SLR   14,14                          INDICATE RETURN TO CALLER 07050000
.*                                                                      07100000
.*--------------------------------------------------------------------- 07150000
.*       SET FUNCTION CODE                                              07200000
.*--------------------------------------------------------------------- 07250000
.*                                                                      07300000
.SETFUN  ANOP                                                           07350000
         LA    15,&FC                         SET FUNCTION CODE         07400000
         SVC   107                            HANDLE REQUEST            07450000
         MEXIT                                                          07500000
.*                                                                      07550000
.*--------------------------------------------------------------------- 07600000
.*       MACRO NOTES                                                    07650000
.*--------------------------------------------------------------------- 07700000
.*                                                                      07750000
.NOTE01  MNOTE 8,'REGISTER 0 MUST NOT BE USED FOR RETADD OPERAND'       07800000
         MEXIT                                                          07810052
.NOTE02  MNOTE 8,'CODE= &CODE IS UNKNOWN TO SLEAVE'                     07820052
         MEXIT                                                          07830052
.NOTE03  MNOTE 8,'FOR CODE=ALET NO RETADD= PERMITTED'                   07840052
         MEND                                                           07850000
*                                                                       07900000
*---------------------------------------------------------------------- 07950000
*---------------------------------------------------------------------- 08000000
*        PL/S PART OF MACRO FOLLOWS                                     08050000
*---------------------------------------------------------------------- 08100000
*---------------------------------------------------------------------- 08150000
*                                      END OF PL/S COMMENT           */ 08200000
*%LEAVEPLS :  ;                                                         08250000
*%SLEAVE: MACRO KEYS(RETADD,CODE,                                       08300052
*               RETCOD);                                                08350000
* /*-----------------------------------------------------------------*/ 08400000
* /*     LIST MACRO INVOCATION IN SOURCE                             */ 08450000
* /*-----------------------------------------------------------------*/ 08500000
*    ANS ('/* '||MACLABEL||' '||MACNAME||' '||MACLIST||' '||MACKEYS||   08550000
*         '*/') COL(MACLMAR);                                           08600000
* ANS ('/*                                                   */')       08650000
* COL(MACLMAR);                                                         08700000
* ANS ('/*       SUPERVISOR - SLEAVE - 5686-007-06-C44       */')       08750000
* COL(MACLMAR);                                                         08800000
* ANS ('/*                                                   */')       08850000
* COL(MACLMAR);                                                         08900000
* IF CODE(1) = 'ALET' THEN             /* DEFAULT FOR CODE IS LIBR   */ 08916552
*    IF NUMBER(RETADD) ¬= 0 THEN       /*                            */ 08922052
*       GO TO MERR02;                  /* THEN WRITE MNOTE           */ 08927552
* IF NUMBER(RETADD) ¬= 0 THEN          /*                            */ 08933052
*    IF RETADD(1) = '0' THEN           /* REGISTER 0 USED FOR RETADD */ 08938552
*       GO TO MERR01;                  /* THEN WRITE MNOTE           */ 08944052
* IF NUMBER(RETADD) ¬= 0 THEN          /*                            */ 08950000
*    IF RETADD(1) = '0' THEN           /* REGISTER 0 USED FOR RETADD */ 09000000
*       GO TO MERR01;                  /* THEN WRITE MNOTE           */ 09050000
* /*-----------------------------------------------------------------*/ 09100000
* /*     DECLARE NECESSARY REGISTER                                  */ 09150000
* /*-----------------------------------------------------------------*/ 09200000
* ANS ('DCL REG0'||MACINDEX||' REG(0) PTR(31);')RESCAN SKIP COL(10);    09250052
* ANS ('/* SPECIFY REGISTER 0        */') COL(41);                      09300052
* ANS ('DCL REGE'||MACINDEX||' REG(14) PTR(31);')RESCAN SKIP COL(10);   09350052
* ANS ('/* SPECIFY REGISTER 14       */') COL(41);                      09400052
* ANS ('DCL REGF'||MACINDEX||' REG(15) PTR(31);')RESCAN SKIP COL(10);   09900000
* ANS ('/* SPECIFY REGISTER 15       */') COL(41);                      09950000
* ANS ('RFY (REG0'||MACINDEX||') RSTD;') RESCAN SKIP COL(10);           09992852
* ANS ('RFY (REGE'||MACINDEX||') RSTD;') RESCAN SKIP COL(10);           10035652
* ANS ('RFY (REGF'||MACINDEX||') RSTD;') RESCAN SKIP COL(10);           10078452
* /*-----------------------------------------------------------------*/ 10121252
* /*     WRITE A MACRO LABEL                                         */ 10164052
* /*-----------------------------------------------------------------*/ 10206852
* IF MACLABEL ¬= '' THEN               /* IF LABEL SPECIFIED         */ 10250000
* ANS (''||MACLABEL||';') COL(MACLMAR);                                 10300000
* /*-----------------------------------------------------------------*/ 10350000
* /*     CHECK AND SET RETCOD OPERAND                                */ 10400000
* /*-----------------------------------------------------------------*/ 10450000
*  IF NUMBER(RETCOD) = 0 THEN DO;      /*                            */ 10500052
*    ANS ('REG0'||MACINDEX||' = 0 ;')RESCAN                             10550052
*    SKIP COL(10);                                                      10600052
*    ANS ('/* PASS RETURN CODE          */') COL(41);                   10650052
*  END;                                /*                            */ 10700052
*  ELSE                                /*                            */ 10750000
*    IF RETCOD(1) ¬= '0' THEN DO;      /*                            */ 10800052
*      ANS ('REG0'||MACINDEX||' = '||RETCOD(1)||';')RESCAN              10850052
*      SKIP COL(10);                                                    10900052
*      ANS ('/* PASS RETURN CODE          */') COL(41);                 10950052
*    END;                              /*                            */ 11000052
*  ELSE;                               /*                            */ 11050052
* /*-----------------------------------------------------------------*/ 11100000
* /*     CHECK AND SET RETADD OPERAND (RETURN ADDRESS)               */ 11150000
* /*-----------------------------------------------------------------*/ 11200000
*                                      /* RETADD ONLY VALID FOR      */ 11240652
*  IF NUMBER(CODE) = 0 |               /* CODE(LIBR) OR OMITTED CODE */ 11281252
*     CODE(1) = 'LIBR' THEN DO;        /*                            */ 11321852
*    IF NUMBER(RETADD) = 0 THEN DO;    /*                            */ 11362452
*       ANS ('REGE'||MACINDEX||' = 0 ;')RESCAN SKIP COL(10);            11403052
*       ANS ('/* INDICATE RETURN TO CALLER */') COL(41);                11443652
*    END;                              /*                            */ 11484252
*    ELSE DO;                          /*                            */ 11524852
*      IF RETADD(1) ¬= '14' THEN DO;   /*                            */ 11565452
*        ANS ('REGE'||MACINDEX||' = '||RETADD(1)||';')RESCAN            11606052
*        SKIP COL(10);                                                  11646652
*        ANS ('/* SET RETURN ADDRESS        */') COL(41);               11687252
*      END;                            /*                            */ 11727852
*      ELSE;                           /*                            */ 11768452
*    END;                              /*                            */ 11788852
*  END;                                /*                            */ 11809252
*                                                                       11829652
* /*-----------------------------------------------------------------*/ 11850000
* /*     SET FUNCTION CODE AND SVC                                   */ 11900000
* /*-----------------------------------------------------------------*/ 11950000
* IF CODE(1) = 'ALET' THEN             /* DEFAULT FOR CODE IS LIBR   */ 11962552
* ANS ('REGF'||MACINDEX||' =157;')RESCAN SKIP COL(10);                  11975052
* IF CODE(1) = 'LIBR' |                /* DEFAULT FOR CODE IS LIBR   */ 11983352
*    NUMBER(CODE) = 0 THEN             /* DEFAULT FOR CODE IS LIBR   */ 11991652
* ANS ('REGF'||MACINDEX||' = 71;')RESCAN SKIP COL(10);                  12000000
* ANS ('/* INDICATE FUNCTION         */') COL(41);                      12050000
* ANS ('SVC(107);') SKIP COL(10);                                       12100000
* ANS ('/*                           */') COL(41);                      12150000
*                                                                       12187552
* /*-----------------------------------------------------------------*/ 12225052
* /*     MAKE USED REGISTERS UNRESTRICTED AGAIN.                     */ 12262552
* /*-----------------------------------------------------------------*/ 12300052
* ANS ('RFY (REG0'||MACINDEX||') UNRSTD;') RESCAN SKIP COL(10);         12337552
* ANS ('RFY (REGE'||MACINDEX||') UNRSTD;') RESCAN SKIP COL(10);         12375052
* ANS ('RFY (REGF'||MACINDEX||') UNRSTD;') RESCAN SKIP COL(10);         12412552
* RETURN CODE(0);                      /* EXIT                       */ 12450000
*                                                                       12475052
* /*-----------------------------------------------------------------*/ 12500000
* /*     MNOTES                                                      */ 12550000
* /*-----------------------------------------------------------------*/ 12600000
* MERR01:                              /*                            */ 12650000
* ANS MSG('REGISTER 0 MUST NOT BE USED FOR RETADD OPERAND;');           12700000
* ANS ('/* REGISTER 0 MUST NOT BE USED FOR RETADD OPERAND*/')           12750000
* COL(MACLMAR);                                                         12800000
* RETURN CODE(8);                      /* EXIT                       */ 12850000
* MERR02:                              /*                            */ 12858352
* ANS MSG('NO RETADD OPERAND FOR CODE(ALET) PLEASE;');                  12866652
* ANS ('/* NO RETADD OPERAND FOR CODE(ALET) PLEASE*/')                  12874952
* COL(MACLMAR);                                                         12883252
* RETURN CODE(8);                      /* EXIT                       */ 12891552
*%END ;                                /*                            */ 12900000
