         MACRO                                                          00050001
&NAME    SMCBEM &ERROR,            INVALID POSITIONAL PARAMETER        *00100001
               &FUNC=              TYPE OF FUNCTION                     00150000
         GBLB  &IJBSGEN            SUPERVISOR GENERATION                00275001
***************************************************************         00450001
.*       IBM DISK OPERATING SYSTEM                            *         00500001
*        SUPERVISOR - SMCBEM - 5686-066-06                    *         00550001
         AGO   .ZZZ                                           *         00600001
*        LICENSED MATERIALS - PROPERTY OF IBM                 *         00650001
*        THIS MACRO IS "RESTRICTED MATERIALS OF IBM"          *         00700001
*        5686-066 (C) COPYRIGHT IBM CORP. 1994                *         00750001
*        SEE COPYRIGHT INSTRUCTIONS                           *         00800001
.*                                                                      00850001
.*   CHANGE ACTIVITIES                                                  00900001
.*     NEW MACRO FIRST RELEASE AF 6.2.0                       *         00950001
.*                                                                      01000001
.ZZZ     ANOP                                                 *         01050001
.* A000000-999999                                             *@D62ADMZ 01100001
***************************************************************         01150001
         AIF   (T'&ERROR EQ 'O').G0                                     01200001
         MNOTE 8,'POSITIONAL PARAMETER SPECIFIED - MACRO IGNORED'       01250001
         MEXIT                                                          01300001
.G0      ANOP                                                           01350001
         AIF   (T'&NAME EQ 'O').PRSP                                    01400001
&NAME    DS    0H                                                       01450001
.PRSP    ANOP                                                           01500001
.**************************************************************         01550001
.*   PROCESS FUNC PARAMETER                                             01600000
.**************************************************************         01650001
         AIF   (T'&FUNC EQ 'O').SMC01                                   01685700
         AIF   ('&FUNC' EQ 'ALLOC').SMC02                               01721400
         AIF   ('&FUNC' EQ 'DEALL').SMC03                               01757100
         AIF   ('&FUNC' EQ 'UPDATE').SMC04                              01792800
         AIF   ('&FUNC' EQ 'UPDATER').SMC05                             01828500
         AIF   ('&FUNC' EQ 'CHECK').SMC06                               01828601
         AIF   ('&FUNC' EQ 'CLEANUP').SMC07                             01828704
         MNOTE 8,'INVALID FUNC PARAMETER SPECIFIED. MACRO IGNORED'      01864200
         MEXIT                                                          01900001
.SMC01   ANOP                                                           01950000
         MNOTE 8,'FUNC PARAMETER REQUIRED. MACRO IGNORED'               02000000
         MEXIT                                                          02150001
.SMC02   ANOP                     ALLOC=YES SPECIFIED                   02200001
         LA    0,0                FC FOR ALLOC REQUEST                  02500001
         AGO   .SMC20                                                   02550000
.SMC03   ANOP                                                           02600000
         LA    0,4                FC FOR DEALL REQUEST                  03600001
         AGO   .SMC20                                                   03650000
.SMC04   ANOP                                                           03850000
         LA    0,8                FC FOR UPDATE REQUEST                 04237200
         AGO   .SMC20                                                   04237301
.SMC05   ANOP                                                           04237401
         LA    0,12               FC FOR UPDATER REQUEST                04237501
         AGO   .SMC20                                                   04237601
.SMC06   ANOP                                                           04237701
         STM   0,14,0(13)         SAVE REGISTERS, EXCEPT RETURN CODE    04237803
         LA    0,16               FC FOR CHECK   REQUEST                04237902
         AGO   .SMC20                                                   04238004
.SMC07   ANOP                                                           04239004
         LA    0,20               FC FOR CLEANUP REQUEST                04240004
         AGO   .SMC20                                                   04241004
.SMC20   ANOP                                                           04243400
         AIF   (&IJBSGEN).SMC12                                         04250001
         ASYSCOM 15                                                     04300001
         L     15,IJBSPAVT-SYSCOM(,15)                                  04350001
         AGO   .SMC13                                                   04400001
.SMC12   ANOP                                                           04450001
         L     15,IJBSPAVT                                              04500001
.SMC13   ANOP                                                           04550001
         L     15,ASVASVDL-SUPAVT(,15)                                  04600001
         L     15,AIJBMCBE-SVASVDL(,15)                                 04650001
         AMODESW CALL,REGS=(14,15)                                      04700001
         AIF   ('&FUNC' NE 'CHECK').SMCEND                              04710002
         LM    0,14,0(13)         RESTORE REGISTERS                     04711003
.SMCEND  ANOP                                                           04720002
         MEND                                                           04750001
