*%GOTO  MSMCOM; /*PLS COMMENT TO AVOID UNMATCHED QUOTE PROBLEMS         00050000
         MACRO                                                          00100000
&NAME    SMCOM                                                          00150000
.*       IBM DISK OPERATING SYSTEM                            *         00200000
*        SUPERVISOR - SMCOM - 5686-066-06                     *         00250001
         GBLC  &SMLAB                                         *@D51IDMZ 00300000
         GBLB  &IJBSGEN                                                 00350000
         GBLA  &AGJCLAR                                       *@D51IDMZ 00450000
         AGO   .ZZZ                                           *         00500000
*        LICENSED MATERIALS - PROPERTY OF IBM                 *         00550000
*        THIS MACRO IS "RESTRICTED MATERIALS OF IBM"          *         00600000
*        5686-066 (C) COPYRIGHT IBM CORP. 1983, 1996          *         00650001
*        SEE COPYRIGHT INSTRUCTIONS                           *         00700000
.ZZZ     ANOP                                                 *         00750000
.**** START OF SPECIFICATIONS ***************************************** 00800000
.*                                                                      00850000
.*01* MODULE-TYPE = MACRO                                               00900000
.*                                                                      00950000
.*01* DESCRIPTIVE NAME = STORAGE MANAGEMENT COMMUNICATION AREA          01000000
.*                                                                      01050000
.*  STATUS           =  NEW MACRO - FIRST RELEASE AF 2.1                01100000
.*                                                                      01150000
.*  FUNCTION         =  LINKAGE TO SUPERVISOR ROUTINES FROM SVA         01200000
.*  NOTES            =  NONE                                            01250000
.*  DEPENDENCIES     =  NONE                                            01300000
.*  RESTRICTIONS     =  NONE                                            01350000
.*  REGISTER CONVENT.=  NONE                                            01400000
.*  PATCH LABEL      =  NONE                                            01450000
.*  MACRO TYPE       =  ASSEMBLER                                       01500000
.*  PROCESSOR        =  ASM                                             01550000
.*  MACRO SIZE       =  SEE OUTPUT                                      01600000
.*  ATTRIBUTES       =  MAPPING DSECT OR DEFINED STORAGE AREA           01650000
.*  ENTRY POINT      =  SMCOM                                           01700000
.*  PURPOSE          =  SEE FUNCTION                                    01750000
.*  LINKAGE          =  SEE INPUT                                       01800000
.*  CALLER           =  SUPERVISOR, IPL AND SVA ROUTINES                01850000
.*  INPUT            =  SMCOM                                           01900000
.*  OUTPUT           =  DSECT OR DEFINED STORAGE AREA                   01950000
.*                                                                      02000000
.*  EXIT NORMAL      =  MACRO EXPANSION                                 02050000
.*                                                                      02100000
.*  EXIT ERROR       =  NONE                                            02150000
.*                                                                      02200000
.*  EXTERNAL REFEREN.=  NONE                                            02250000
.*  ROUTINES         =  NONE                                            02300000
.*  DATA AREAS       =  NONE                                            02350000
.*  CONTROL BLOCKS   =  NONE                                            02400000
.*  TABLES           =  NONE                                            02450000
.*  MACROS           =  NONE                                            02500000
.*  CHANGE ACTIVITIES=  NEW MACRO   FIRST RELEASE AF 2.1                02550000
.*     NEW SYSTEM LAYOUT (RSE) AF 5.1.0                        @D51GDRP 02600000
.*     MORE PARTITION SUPPORT AF 5.1.0                         @D51IDMZ 02650000
.*     31 BIT SUPPORT         AF 5.3.0                         @D52VDMZ 02675001
.*                            AF 6.1.0                         @D61NDMZ 02687501
.*     TURBO DISP. SUPPORT    AF 6.1.0                         @D61RDRP 02693701
.*  MODIFIED REGISTER=  NONE                                            02700000
.*                                                                      02750000
.*  A000000-999999                                             @D14NDFG 02800000
.*                                                                      02850000
.** END OF SPECICATIONS *********************************************** 02900000
.*                                                                      02950000
***************************************************************         03000000
*        STORAGE MANAGEMENT COMMUNICATION AREA                *         03050000
***************************************************************         03100000
         AIF   (T'&NAME EQ 'O').NONAME                                  03150000
&SMLAB   SETC  '&NAME'                                         @D51IDMZ 03200000
         AGO   .SMYNAME                                        @D51IDMZ 03250000
.NONAME  ANOP                                                           03300000
&SMLAB   SETC  'SMCOM'                                         @D51IDMZ 03350000
.SMYNAME ANOP                                                           03400000
         AIF   (NOT &IJBSGEN).DSECT                                     03450000
&SMLAB   DS    0F                 STORAGE MANAGEMENT COMM.AREA          03500000
         AGO   .NODSECT                                                 03550000
.DSECT   ANOP                                                           03600000
&SMLAB   DSECT                    STORAGE MANAGEMENT COMM.AREA          03650000
PPBEGIN  EQU   *                                               @D51GDRP 03700000
.NODSECT ANOP                                                           03750000
SMALCVSZ DC    F'0'               ALLOCATED VIRTUAL STORAGE (IN K)      03800000
SMPPMIN  DC    F'46'              MINIMUM PAGE POOL IN PAGES   @D61RDRP 03850001
SMINSPX3 DC    F'0'               MIN.SYSTEM REAL PART.(31BIT) IN PAGES 04033301
SMINSVPX DC    F'14'              MIN.SYSTEM REAL PART(IN PAG.)@D52VDMZ 04066601
SMINPART DC    H'128'             MINIMUM PARTITION SIZE (IN K)         04300000
SMCFLG1  DC    X'80'              SMCOM FLAG BYTE              @D61NDMZ 04304101
* THE GETVIS CI IS ALWAYS IN THE ABOVE AREA. THE BIT SMCGVCIA           04308201
* IS MAINTAINED FOR COMPATIBILITY REASONS ONLY (VENDORS)                04312301
SMCGVCIA EQU   X'80'              SGETVIS CTR.INFO IN AREA ABV.@D52VDMZ 04316401
SMCGVBEL EQU   X'40'              SGETVIS BELOW AREA VALIDATED,BELOW   *04320501
                                  REQUESTS CAN BE SATISFIED    @D61NDMZ 04324901
         DC    X'00'              RESERVED                     @D52VDMZ 04337501
SMINSIZE DS    0CL8               MIN.SIZE VALUES              @D51IDMZ 04350000
SMINPVSZ DC    H'80'              MIN.PERMANENT VIRTUAL'SIZE'(IN K)     04400000
         DC    H'4'               MIN.TEMP. VIRTUAL'SIZE'(IN K)@D51GDRP 04450000
         DC    H'0'               RESERVED                              04500000
         DC    H'4'               MIN.TEMP. REAL'SIZE'(IN K)   @D51GDRP 04600000
SMINGTVS DS    0CL8               MIN. GETVIS SIZES            @D51IDMZ 04800000
SMINPVGV DC    H'48'              MIN.PERMANENT VIRT.GETVIS (IN K)      04850000
         DC    H'48'              MIN.TEMPORARY VIRT.GETVIS (IN K)      04900000
         DC    H'0'               RESERVED                              04950000
         DC    H'0'               MIN.TEMPORARY REAL GETVIS (IN K)      05000000
         DC    XL8'00'            RESERVED                     @D52VDMZ 05100001
SMCSSPID DC    C'IJBSSP',XL2'00'  SUBPOOL FOR SYSTEM USE       @D52VDMZ 05150001
SMCSUPND DC    A(0)               LAST BYTE OF SUPERVISOR      @D51GDRP 05300000
SMCSSBEG DC    A(0)               1ST BYTE OF SDAID AREA       @D51GDRP 05350000
.* SMCSSEND IS INITALIZED WITH A(PPBEGIN), BECAUSE THIS ADDRESS IS      05400000
.* USED DURING IPL FOR VALIDATION. LATERON IT IS CHANGED DURING IPL     05450000
.* PROCESSING TO THE CORRECT VALUE                                      05500000
.* DO NOT CHANGE THE FOLLOWING SEQUENCE WITHOUT CHECKING THE EXTRACT    05516601
.* SERVICE                                                              05533201
SMCSSEND DC    A(PPBEGIN)         LAST BYTE OF SDAID AREA      @D51GDRP 05550000
SMCSVA   DC    A(0)               1ST BYTE OF SVA (24 BIT)     @D51GDRP 05600001
SMCESVA  DC    A(0)               LAST BYTE OF SVA (24 BIT)    @D51GDRP 05650001
SMCSPBEG DC    A(0)               1ST BYTE OF SHARED PART. AREA@D51GDRP 05700000
SMCSPEND DC    A(0)               LAST BYTE OF SHARED PART.AREA@D51GDRP 05750000
SMCPRPBG DC    A(0)               1ST BYTE OF PRIV. PART. AREA @D51GDRP 05800000
SMCPRPND DC    A(0)               LAST BYTE OF PRIV. PART. AREA@D51GDRP 05850000
SMCVPBEG DC    A(0)               1ST BYTE OF VPOOL AREA       @D51GDRP 05900000
SMCVPEND DC    A(0)               LAST BYTE OF VPOOL AREA      @D51GDRP 05950000
SMCSVIS  DC    A(0)               1ST BYTE OF SYS GTVIS (24BIT)@D51GDRP 05983301
SMCESVIS DC    A(0)               LST BYTE OF SYS GTVIS (24BIT)@D52VDMZ 06016601
SMCPPBEG DC    A(PPBEGIN)         1ST BYTE OF PROBL.PROGR. AREA@D51GDRP 06050000
SMCSVA31 DC    A(0)               1ST BYTE OF SVA (31 BIT)     @D52VDMZ 06060001
SMCESV31 DC    A(0)               LAST BYTE OF SVA (31 BIT)    @D52VDMZ 06070001
SMCSGV31 DC    A(0)               1ST BYTE OF SYS GTVIS (31BIT)@D52VDMZ 06080001
SMCESG31 DC    A(0)               1ST BYTE OF SYS GTVIS (31BIT)@D52VDMZ 06090001
SMJCWASZ DC    AL2(&AGJCLAR*1024) SIZE OF JCL WORK AREA        @D51IDMZ 06100000
SMALLUN  DC    H'64'              ALLOC UNIT FOR STATIC PRIVATE@D51IDMZ 06200000
*                                 PART                         @D61NDMZ 06250001
SMNFSPID DC    C'IJBNFC',XL2'00'  SUBPOOL ID FOR NON FIXED CBS @D51IDMZ 06500000
SMCRBG1  DC    A(0)               FIRST BYTE OF PFIX 24BIT AREA@D52VDMZ 06503501
SMCRND1  DC    A(0)               LAST BYTE OF PFIX 24 BIT AREA@D52VDMZ 06507001
SMCRBG2  DC    A(0)               FIRST BYTE OF ALLOC R AREA   @D52VDMZ 06510501
SMCRND2  DC    A(0)               LAST BYTE OF ALLOC R AREA    @D52VDMZ 06514001
SMCRBG3  DC    A(0)               FIRST BYTE OF PFIX 31BIT AREA@D52VDMZ 06517501
SMCRND3  DC    A(0)               LAST BYTE OF PFIX 31 BIT AREA@D52VDMZ 06521001
SMCPFX1  DC    F'0'               NO OF FRAMES IN AREA 1       @D52VDMZ 06524501
SMCPFX3  DC    F'0'               NO OF FRAMES IN AREA 2       @D52VDMZ 06528001
SMCPEOR  DC    A(0)               PHYSICAL END OF REAL STORAGE @D52VDMZ 06531501
.* SMCPEOR END OF REAL STORAGE AS INDICATED BY HARDWARE                 06533201
SMCASN1  DC    F'0'               VIRT. ADDR OF ASN 1ST TABLE  @D61ADMZ 06536101
         AIF   (&IJBSGEN).SMC1                                          06536202
SMCASN2  DS    F                  VIRT. ADDR OF ASN 1ST TABEL  @D62XDMZ 06536302
         AGO   .SMC2                                                    06536402
.SMC1    ANOP                                                           06536502
SMCASN2  DC    A(ASTE$AR)         VIRT. ADDR OF ASN 2ND TABLE           06539001
*                                 ADDR CHANGED DURING IPL      @D62XDMZ 06539102
.SMC2    ANOP                                                           06539202
         DC    F'0'               RESERVED FOR FUTURE USE      @D64ADMZ 06539705
         DC    F'0'               RESERVED FOR FUTURE USE      @D64ADMZ 06539805
SMCLXTAB DC    A(0)               LINKAGE INDEX ALLOC. TABLE   @D61ADMZ 06540401
SMCXMSSP DC    C'IJBXMS',XL2'00'  SUBPOOL ID FOR XMS WOKR AREA @D61ADMZ 06540701
SMCXMSCB DC    C'IJBXCB',XL2'00'  SUBPOOL XMS CONTROL BLOCKS   @D61ADMZ 06540801
SMCXETIQ DC    A(0)               START OF ETIB QUEUE          @D61ADMZ 06540901
         DC    A(0)               RESERVED FOR FUTURE USE      @D64ADMZ 06541004
SMCAXAT  DC    A(0)               AX TABLE                     @D61ADMZ 06541201
SMCNODYN DC    H'0'               STORE TEMP. NO OF DYN. PART. @D61NDMZ 06541401
SMCSVR24 DC    H'0'               24-BIT SGETVIS ROUNDING IN K @DY43697 06541500
SMCSVR31 DC    H'0'               31-BIT SGETVIS ROUNDING IN K @DY43697 06541600
         DC    H'0'               RESERVED                     @D52VDMZ 06541700
SMCSYSPL DC    A(0)               PTR TO SYSTEM SPLE CHAIN     @D62ADMZ 06543603
         DC    A(0)               RESERVED                     @D52VDMZ 06545501
         DC    A(0)               RESERVED                     @D52VDMZ 06547701
SMCOMLNG EQU   *-&SMLAB           LENGTH OF SMCOM              @D51IDMZ 06550000
         MEND                                                           06600000
* END OF PLS COMMENT */ %MSMCOM : ;                                     06650000
* DECLARE                                                               06700000
* 1  SMCOM     BASED,     /* STORAGE MANAGEMENT COMM.AREA            */ 06750000
*  2 SMALCVSZ  FIXED(31), /* ALLOCATED VIRTUAL STORAGE (IN K)        */ 06800000
*  2 SMPPMIN   FIXED(31), /* MINIMUM PAGE POOL IN PAGES              */ 06950000
*  2 SMINSPX3  FIXED(31), /* MIN.SYS.REAL PART(31BIT) IN PAG.@D52VDMZ*/ 06983301
*  2 SMINSVPX  FIXED(31), /* MIN.SYSTEM REAL PART. (IN PAGES)@D52VDMZ*/ 07016601
*  2 SMINPART  FIXED(15), /* H'128' MINIMUM PARTITION SIZE (IN K)    */ 07050000
*  2 SMCFLG1   BIT(8),    /* SMCOM FLAG BYTE                 @D52VDMZ*/ 07060001
*   3 SMCGVCIA BIT(1),    /* SGETVIS CNTRL.INFO IN AREA ABV. @D52VDMZ*/ 07061601
*   3 SMCGVBEL BIT(1),    /* SGETVIS BELOW AREA VALIDATED,LOC=BELOW     07063301
*                            REQUESTS CAN BE SATISFIED       @D61NDMZ*/ 07066601
*   3 *        BIT(6),    /* RESERVED                        @D52VDMZ*/ 07078300
*  2 *         CHAR(1),   /* RESERVED                        @D52VDMZ*/ 07090001
*  2 SMINSIZE  CHAR(8) BDY(HWORD), /*MIN. 'SIZE' VALUES FOR SETLIMIT */ 07100000
*   3 SMINPVSZ FIXED(15), /* MIN.PERMANENT VIRTUAL'SIZE'(IN K)       */ 07150000
*   3 SMINTVSZ FIXED(15), /* MIN.TEMPORARY VIRTUAL'SIZE'(IN K)       */ 07200000
*   3 *        FIXED(15), /* RESERVED                                */ 07250000
*   3 SMINTRSZ FIXED(15), /* MIN.TEMPORARY REAL'SIZE'(IN K)          */ 07300000
*  2 SMINGTVS  CHAR(8) BDY(HWORD), /* MIN. GETVIS SIZES FOR SETLIMIT */ 07350000
*   3 SMINPVGV FIXED(15), /* MIN.PERMANENT VIRT.GETVIS (IN K)        */ 07400000
*   3 SMINTVGV FIXED(15), /* MIN.TEMPORARY VIRT.GETVIS (IN K)        */ 07450000
*   3 *        FIXED(15), /* RESERVED                                */ 07500000
*   3 SMINTRGV FIXED(15), /* MIN.TEMPORARY REAL GETVIS (IN K)        */ 07550000
*  2 *         CHAR(8),   /* RESERVED                        @D52VDMZ*/ 07600001
*  2 SMCSSPID  CHAR(8),   /* SUBPOOL (FIXED) FOR SYSTEM USE  @D52VDMZ*/ 07625001
*  2 SMCSUPND  PTR(31),   /* LAST BYTE OF SUPERVISOR         @D51GDRP*/ 07650000
*  2 SMCSSBEG  PTR(31),   /* 1ST BYTE OF SDAID AREA          @D51GDRP*/ 07700000
*  2 SMCSSEND  PTR(31),   /* LAST BYTE OF SDAID AREA         @D51GDRP*/ 07750000
*  2 SMCSVA    PTR(31),   /* 1ST BYTE OF SVA                 @D51GDRP*/ 07800000
*  2 SMCESVA   PTR(31),   /* LAST BYTE OF SVA                @D51GDRP*/ 07850000
*  2 SMCSPBEG  PTR(31),   /* 1ST BYTE OF SHARED PART. AREA   @D51GDRP*/ 07900000
*  2 SMCSPEND  PTR(31),   /* LAST BYTE OF SHARED PART.AREA   @D51GDRP*/ 07950000
*  2 SMCPRPBG  PTR(31),   /* 1ST BYTE OF PRIV. PART. AREA    @D51GDRP*/ 08000000
*  2 SMCPRPND  PTR(31),   /* LAST BYTE OF PRIV. PART. AREA   @D51GDRP*/ 08050000
*  2 SMCVPBEG  PTR(31),   /* 1ST BYTE OF VPOOL AREA          @D51GDRP*/ 08100000
*  2 SMCVPEND  PTR(31),   /* LAST BYTE OF VPOOL AREA         @D51GDRP*/ 08150000
*  2 SMCSVIS   PTR(31),   /* 1ST BYTE OF SYS GETVIS (24 BIT) @D51GDRP*/ 08183301
*  2 SMCESVIS  PTR(31),   /* LST BYTE OF SYS GETVIS (24 BIT) @D52VDMZ*/ 08216601
*  2 SMCPPBEG  PTR(31),   /* 1ST BYTE OF PROBLEM PROGRAM AREA@D51GDRP*/ 08250000
*  2 SMCSVA31  PTR(31),   /* 1ST BYTE OF SVA (31 BIT)        @D52VDMZ*/ 08260001
*  2 SMCESV31  PTR(31),   /* LAST BYTE OF SVA (31 BIT)       @D52VDMZ*/ 08270001
*  2 SMCSGV31  PTR(31),   /* 1ST BYTE OF SYS GETVIS (31 BIT) @D52VDMZ*/ 08280001
*  2 SMCESG31  PTR(31),   /* LST BYTE OF SYS GETVIS (31 BIT) @D52VDMZ*/ 08290001
*  2 SMJCWASZ  FIXED(15), /* SIZE OF JCL WORK AREA           @D51IDMZ*/ 08300000
*  2 SMALLUN   FIXED(15), /* ALLOC UNIT FOR STATIC PARTITION @D51IDMZ*/ 08350000
*  2 SMNFSPID  CHAR(8),   /* SUBPOOL FOR NON FIXED CNTRL BL.S@D51IDMZ*/ 08400001
*  2 SMCRBG1   PTR(31),   /* 1ST BYTE OF PFIX 24 BIT AREA    @D52VDMZ*/ 08450001
*  2 SMCRND1   PTR(31),   /* LAST BYTE OF PFIX 24 BIT AREA   @D52VDMZ*/ 08500001
*  2 SMCRBG2   PTR(31),   /* 1ST BYTE OF ALLOC R AREA        @D52VDMZ*/ 08550001
*  2 SMCRND2   PTR(31),   /* LAST BYTE OF ALLOC R AREA       @D52VDMZ*/ 08600001
*  2 SMCRBG3   PTR(31),   /* 1ST BYTE OF PFIX 31 BIT AREA    @D52VDMZ*/ 08650001
*  2 SMCRND3   PTR(31),   /* LAST BYTE OF PFIX 31 BIT AREA   @D52VDMZ*/ 08700001
*  2 SMCPFX1   FIXED(31), /* NO OF FRAMES IN AREA 1          @D52VDMZ*/ 08750001
*  2 SMCPFX3   FIXED(31), /* NO OF FRAMES IN AREA 2          @D52VDMZ*/ 08800001
*  2 SMCPEOR   PTR(31),   /* PHYSICAL END OF REAL STORAGE    @D52VDMZ*/ 08850001
*  2 SMCASN1   PTR(31),   /* VIRT. ADDR OF ASN 1ST TABLE     @D61ADMZ*/ 08900001
*  2 SMCASN2   PTR(31),   /* VIRT. ADDR OF ASN 2ND TABLE     @D61ADMZ*/ 08950001
*  2 *         CHAR(8),   /* RESERVED FOR FUTURE USE         @D64ADMZ*/ 08962505
*  2 SMCLXTAB  PTR(31),   /* LINKAGE INDEX ALLOCATION TABLE  @D61ADMZ*/ 08975001
*  2 SMCXMSSP  CHAR(8),   /* SUBPOOL FOR XMS WORK AREAS      @D61ADMZ*/ 08981201
*  2 SMCXMSCB  CHAR(8),   /* SUBPOOL XMS CONTROL BLOCKS      @D61ADMZ*/ 08983801
*  2 SMCXETIQ  PTR(31),   /* START OF ETIB QUEUE             @D61ADMZ*/ 08986401
*  2 *         PTR(31),   /* RESERVED FOR FUTURE USE         @D64ADMZ*/ 08989004
*  2 SMCAXAT   PTR(31),   /* AX TABLE                        @D61ADMZ*/ 08994201
*  2 SMCNODYN  FIXED(15), /* STORE TEMP. NO OF DYN. PART.    @D61NDMZ*/ 08995001
*  2 SMCSVR24  FIXED(15), /* 24-BIT SGETVIS ROUNDING IN K    @DY43697*/ 08996200
*  2 SMCSVR31  FIXED(15), /* 31-BIT SGETVIS ROUNDING IN K    @DY43697*/ 08997400
*  2 *         FIXED(15), /* RESERVED                        @D52VDMZ*/ 08998600
*  2 SMCSYSPL  PTR(31),   /* PTR TO SYSTEM SPLE CHAIN        @D62ADMZ*/ 09011803
*  2 *         PTR(31),   /* RESERVED                        @D52VDMZ*/ 09025001
*  2 *         PTR(31);   /* RESERVED                        @D52VDMZ*/ 09050001
