         MACRO                                                          00050052
&NAME    SPFIX &ERROR,             INVALID POSITIONAL PARAMETER        -00100052
               &ADDRESS=,          ADDRESS OF PARAMETER LIST           -00150052
               &RLOC=BELOW,        24 BIT PFIX AREA IS DEFAULT         -00200052
               &RETURN=NO,         WAITE HANDLING DONE BY PFIX         -00250052
               &GATE=YES,          GATE HANDLING DONE BY PFIX          -00300052
               &SAVE=              SAVE AREA SPECIFIED                  00350052
         GBLB  &IJBSGEN            SUPERVISOR GENERATION                00375052
         LCLB  &BLSAVE             SAVE INDICATOR                       00400052
         LCLB  &BLANY              LOC = ANY SPECIFIED                  00450052
         LCLB  &BLRET              RETURN TO REQUESTOR INSTEAD OF WAIT  00500052
         LCLB  &BLGAT              GATE HANDLING DONE BY REQUESTOR      00550052
         LCLB  &BLLNGR             REGISTER NOTATION                    00600052
         LCLB  &BLLNGV             VARIABLE NOTATION                    00650052
         LCLC  &A                  INSTRUCTION MODIFIER                 00700052
         LCLC  &SAVEAR             SAVE AREA ADDRESS                    00750052
         LCLC  &SAVEPTR            SAVE AREA PTR                        00800052
         AGO   .MONIKA                                                  00900052
***************************************************************         00950052
.*       IBM DISK OPERATING SYSTEM                            *         01000052
*        SUPERVISOR - SPFIX   - 5686-032-06                   *         01050052
*        LICENSED MATERIALS - PROPERTY OF IBM                 *         01100052
*        THIS MACRO IS "RESTRICTED MATERIALS OF IBM"          *         01150052
*        5686-032 (C) COPYRIGHT IBM CORP. 1992, 1992          *         01200052
*        SEE COPYRIGHT INSTRUCTIONS                           *         01250052
.*                                                            *         01300052
.*   CHANGE ACTIVITIES                                        *         01350052
.*     AF 5.2.0 31-BIT SUPPORT                                *         01383353
.*     AF 5.3.0 REGISTER USAGE                                *@D53NDRP 01416653
.*                                                            *         01450052
.* A000000-999999                                             *@D52VDVB 01500052
***************************************************************         01550052
.MONIKA  ANOP                                                           01600052
         AIF   (T'&ERROR EQ 'O').SPFX000                                01650052
         MNOTE 5,'POSITIONAL PARAMETER SPECIFIED - MACRO IGNORED'       01700052
         MEXIT                                                          01750052
.SPFX000 ANOP                                                           01800052
         AIF   (T'&NAME EQ 'O').SPFX005                                 01850052
&NAME    DS    0H                                                       01900052
.SPFX005 ANOP                                                           01950052
.**************************************************************         02000052
.*   PROCESS RLOC  PARAMETER                                            02050052
.**************************************************************         02100052
         AIF   ('&RLOC' EQ 'BELOW').SPFX015                             02150052
         AIF   ('&RLOC' EQ 'ANY'  ).SPFX010                             02200052
         MNOTE 8,'INVALID RLOC OPERAND - MACRO IGNORED'                 02250052
         MEXIT                                                          02300052
.SPFX010 ANOP                                                           02350052
&BLANY   SETB  1          LOC = ANY SPECIFIED                           02400052
.SPFX015 ANOP                                                           02450052
.**************************************************************         02500052
.*   PROCESS RETURN PARAMETER                                           02550052
.**************************************************************         02600052
         AIF   ('&RETURN' EQ 'YES').SPFX020                             02650052
         AIF   ('&RETURN' EQ 'NO' ).SPFX025                             02700052
         MNOTE 8,'INVALID RETURN OPERAND - MACRO IGNORED'               02750052
         MEXIT                                                          02800052
.SPFX020 ANOP                                                           02850052
&BLRET   SETB  1          RETURN = YES SPECIFIED                        02900052
.SPFX025 ANOP                                                           02950052
.**************************************************************         03000052
.*   PROCESS GATE PARAMETER                                             03050052
.**************************************************************         03100052
         AIF   ('&GATE' EQ 'YES').SPFX035                               03150052
         AIF   ('&GATE' EQ 'NO' ).SPFX030                               03200052
         MNOTE 8,'INVALID GATE OPERAND  - MACRO IGNORED'                03250052
         MEXIT                                                          03300052
.SPFX030 ANOP                                                           03350052
&BLGAT   SETB  1          GATE = NO  SPECIFIED                          03400052
.SPFX035 ANOP                                                           03450052
.**************************************************************         03500052
.*   PROCESS ADDRESS PARAMETER                                          03550052
.**************************************************************         03600052
         AIF   (T'&ADDRESS NE 'O').SPFX040                              03650052
         MNOTE 8,'MISSING ADDRESS PARAMETER - MACRO IGNORED'            03700052
         MEXIT                                                          03750052
.SPFX040 ANOP                                                           03800052
         AIF   ('&ADDRESS'(1,1) NE '(').SPFX070                         03850052
         AIF   (T'&ADDRESS(1) NE 'N').SPFX060                           03900052
         AIF   ( &ADDRESS(1) EQ  1 ).SPFX090                            03950052
.SPFX060 ANOP                                                           04000052
&BLLNGR  SETB  1                  INDICATE REGISTER NOTATION            04050052
         AGO   .SPFX090                                                 04100052
.SPFX070 AIF   (T'&ADDRESS NE 'N').SPFX080                              04150052
         MNOTE 8,'ADDRESS PARAMETER INVALID  - MACRO IGNORED'           04200052
         MEXIT                                                          04250052
.SPFX080 ANOP                                                           04300052
&BLLNGV  SETB  1                  INDICATE VARIABLE NOTATION            04350052
.SPFX090 ANOP                                                           04400052
.**************************************************************         04450052
.*  PROCESS SAVE PARAMETER                                              04500052
.**************************************************************         04550052
         AIF   (T'&SAVE EQ 'O').GENCOD    PARAMETER SPECIFIED ?         04600052
         AIF   ('&SAVE'(1,1) NE '(').SVADD     REG NOTATION             04650052
&SAVEAR  SETC  '16&SAVE'          GET SAVE AREA OFFSET                  04700052
&SAVEPTR SETC  '&SAVE(1)'         GET SAVE AREA POINTER                 04750052
&A       SETC  'R'                GET INSTRUCTION MODIFIER              04800052
         AGO   .SVCOM                                                   04850052
.SVADD   ANOP                                                           04900052
         AIF   (T'&SAVE NE 'N').SVLA      VALID SYMBOL                  04950052
         MNOTE 8,'SAVE PARAMETER INVALID - MACRO IGNORED'               05000052
         MEXIT                                                          05050052
.SVLA    ANOP                                                           05100052
&SAVEAR  SETC  '&SAVE+16'         GET SAVE AREA OFFSET                  05150052
&SAVEPTR SETC  '&SAVE'            GET SAVE AREA POINTER                 05200052
&A       SETC  'A'                GET INSTRUCTION MODIFIER              05250052
.SVCOM   ANOP                                                           05300052
&BLSAVE  SETB  1                                                        05350052
.**************************************************************         05400052
.*   GENERATE CODE                                                      05450052
.**************************************************************         05500052
.GENCOD  ANOP                                                           05550052
         AIF   (&BLLNGR).GENCOD0  REGISTER NOTATION                     05600052
         AIF   (&BLLNGV).GENCOD1  VARIABLE NOTATION                     05650052
         AGO   .GENCOD2                                                 05700052
.GENCOD0 ANOP                                                           05750052
         LR    1,&ADDRESS(1)      LOAD PARAMETER LIST ADDRESS           05800052
         AGO   .GENCOD2                                                 05850052
.GENCOD1 ANOP                                                           05900052
         L     1,&ADDRESS         LOAD PARAMETER LIST ADDRESS           05950052
.GENCOD2 ANOP                                                           06000052
         CNOP  0,4                                                      06050052
         BAL   15,*+8                                                   06100052
         DC B'000000&BLRET&BLGAT&BLANY.000000&BLANY.0000000000000001'   06150052
         L     15,0(,15)                                                06250052
         AIF   (&BLSAVE).ALTSRA        ALTERNATE SAVE AREA              06300052
         STM   9,8,SVCSV3-TCBADR(10)   SAVE ALL REGISTERS               06350053
         LA    2,SVCSV3-16-TCBADR(,10) SAVE AREA POINTER                06400053
         AGO   .GENBR                                                   06450052
.ALTSRA  ANOP                                                           06500052
         STM   9,8,&SAVEAR             SAVE ALL REGISTERS               06550053
         L&A   2,&SAVEPTR              SAVE AREA POINTER                06600053
.GENBR   ANOP                                                           06650052
         AIF   (&IJBSGEN).SUPGEN                                        06700052
         ASYSCOM 7                                                      06750053
         L     7,IJBSPAVT-SYSCOM(,7)   SUPERV. ADDRESS VECTOR           06800053
         AGO   .COMGEN                                                  06850052
.SUPGEN  ANOP                                                           06900052
         L     7,IJBSPAVT              SUPERV. ADDRESS VECTOR           06950053
.COMGEN  ANOP                                                           07000052
         L     7,ASFIXSUB-SUPAVT(,7)   ROUTINE ADDRESS                  07050053
*        AMODESW CALL,REGS=(7,7)                               @D53NDRP 07100053
         AMODESW CALL,REGS=(7,7)                                        07150053
         ST    15,16+6*4(,2)                                            07200053
         LM    9,8,16(2)               RESTORE ALL REGISTERS            07250053
.MEND    ANOP                                                           07550052
         MEND                                                           07600052
