         MACRO                                                          00050052
&NAME    SPFREE &ERROR,            INVALID POSITIONAL PARAMETER        -00100052
               &ADDRESS=,          ADDRESS OF PARAMETER LIST           -00150052
               &GATE=YES,          GATE HANDLING DONE BY PFREE         -00200052
               &SAVE=              SAVE AREA SPECIFIED                  00250052
         GBLB  &IJBSGEN            SUPERVISOR GENERATION                00275052
         LCLB  &BLSAVE             SAVE INDICATOR                       00300052
         LCLB  &BLGAT              GATE HANDLING DONE BY REQUESTOR      00350052
         LCLB  &BLLNGR             REGISTER NOTATION                    00400052
         LCLB  &BLLNGV             VARIABLE NOTATION                    00450052
         LCLC  &A                  INSTRUCTION MODIFIER                 00500052
         LCLC  &SAVEAR             SAVE AREA ADDRESS                    00550052
         LCLC  &SAVEPTR            SAVE AREA PTR                        00600052
         AGO   .MONIKA                                                  00700052
***************************************************************         00750052
.*       IBM DISK OPERATING SYSTEM                            *         00800052
*        SUPERVISOR - SPFREE  - 5686-032-06                   *         00850052
*        LICENSED MATERIALS - PROPERTY OF IBM                 *         00900052
*        THIS MACRO IS "RESTRICTED MATERIALS OF IBM"          *         00950052
*        5686-032 (C) COPYRIGHT IBM CORP. 1992, 1994          *         01000053
*        SEE COPYRIGHT INSTRUCTIONS                           *         01050052
.*                                                            *         01100052
.*   CHANGE ACTIVITIES                                        *         01150052
.*     AF 5.2.0 31-BIT SUPPORT                                *         01183353
.*     AF 5.3.0 REGISTER USAGE                                *@D53NDVB 01216653
.*                                                            *         01250052
.* A000000-999999                                             *@D52VDVB 01300052
***************************************************************         01350052
.MONIKA  ANOP                                                           01400052
         AIF   (T'&ERROR EQ 'O').SPFR000                                01450052
         MNOTE 5,'POSITIONAL PARAMETER SPECIFIED - MACRO IGNORED'       01500052
         MEXIT                                                          01550052
.SPFR000 ANOP                                                           01600052
         AIF   (T'&NAME EQ 'O').SPFR005                                 01650052
&NAME    DS    0H                                                       01700052
.SPFR005 ANOP                                                           01750052
.**************************************************************         01800052
.*   PROCESS GATE PARAMETER                                             01850052
.**************************************************************         01900052
         AIF   ('&GATE' EQ 'YES').SPFR035                               01950052
         AIF   ('&GATE' EQ 'NO' ).SPFR030                               02000052
         MNOTE 8,'INVALID GATE OPERAND  - MACRO IGNORED'                02050052
         MEXIT                                                          02100052
.SPFR030 ANOP                                                           02150052
&BLGAT   SETB  1          GATE = NO  SPECIFIED                          02200052
.SPFR035 ANOP                                                           02250052
.**************************************************************         02300052
.*   PROCESS ADDRESS PARAMETER                                          02350052
.**************************************************************         02400052
         AIF   (T'&ADDRESS NE 'O').SPFR040                              02450052
         MNOTE 8,'MISSING ADDRESS PARAMETER - MACRO IGNORED'            02500052
         MEXIT                                                          02550052
.SPFR040 ANOP                                                           02600052
         AIF   ('&ADDRESS'(1,1) NE '(').SPFR070                         02650052
         AIF   (T'&ADDRESS(1) NE 'N').SPFR060                           02700052
         AIF   ( &ADDRESS(1) EQ  1 ).SPFR090                            02750052
.SPFR060 ANOP                                                           02800052
&BLLNGR  SETB  1                  INDICATE REGISTER NOTATION            02850052
         AGO   .SPFR090                                                 02900052
.SPFR070 AIF   (T'&ADDRESS NE 'N').SPFR080                              02950052
         MNOTE 8,'ADDRESS PARAMETER INVALID  - MACRO IGNORED'           03000052
         MEXIT                                                          03050052
.SPFR080 ANOP                                                           03100052
&BLLNGV  SETB  1                  INDICATE VARIABLE NOTATION            03150052
.SPFR090 ANOP                                                           03200052
.**************************************************************         03250052
.*  PROCESS SAVE PARAMETER                                              03300052
.**************************************************************         03350052
         AIF   (T'&SAVE EQ 'O').GENCOD    PARAMETER SPECIFIED ?         03400052
         AIF   ('&SAVE'(1,1) NE '(').SVADD     REG NOTATION             03450052
&SAVEAR  SETC  '16&SAVE'          GET SAVE AREA OFFSET                  03500052
&SAVEPTR SETC  '&SAVE(1)'         GET SAVE AREA POINTER                 03550052
&A       SETC  'R'                GET INSTRUCTION MODIFIER              03600052
         AGO   .SVCOM                                                   03650052
.SVADD   ANOP                                                           03700052
         AIF   (T'&SAVE NE 'N').SVLA      VALID SYMBOL                  03750052
         MNOTE 8,'SAVE PARAMETER INVALID - MACRO IGNORED'               03800052
         MEXIT                                                          03850052
.SVLA    ANOP                                                           03900052
&SAVEAR  SETC  '&SAVE+16'         GET SAVE AREA OFFSET                  03950052
&SAVEPTR SETC  '&SAVE'            GET SAVE AREA POINTER                 04000052
&A       SETC  'A'                GET INSTRUCTION MODIFIER              04050052
.SVCOM   ANOP                                                           04100052
&BLSAVE  SETB  1                                                        04150052
.**************************************************************         04200052
.*   GENERATE CODE                                                      04250052
.**************************************************************         04300052
.GENCOD  ANOP                                                           04350052
         AIF   (&BLLNGR).GENCOD0  REGISTER NOTATION                     04400052
         AIF   (&BLLNGV).GENCOD1  VARIABLE NOTATION                     04450052
         AGO   .GENCOD2                                                 04500052
.GENCOD0 ANOP                                                           04550052
         LR    1,&ADDRESS(1)      LOAD PARAMETER LIST ADDRESS           04600052
         AGO   .GENCOD2                                                 04650052
.GENCOD1 ANOP                                                           04700052
         L     1,&ADDRESS         LOAD PARAMETER LIST ADDRESS           04750052
.GENCOD2 ANOP                                                           04800052
         CNOP  0,4                                                      04850052
         BAL   15,*+8                                                   04900052
         DC    B'0000000&BLGAT.0000000000000000000010'                  04950052
         L     15,0(,15)                                                05000052
         AIF   (&BLSAVE).ALTSRA        ALTERNATE SAVE AREA              05050052
         STM   9,8,SVCSV3-TCBADR(10)   SAVE ALL REGISTERS               05100053
         LA    2,SVCSV3-16-TCBADR(,10) SAVE AREA POINTER                05150053
         AGO   .GENBR                                                   05200052
.ALTSRA  ANOP                                                           05250052
         STM   9,8,&SAVEAR             SAVE ALL REGISTERS               05300053
         L&A   2,&SAVEPTR              SAVE AREA POINTER                05350053
.GENBR   ANOP                                                           05400052
         AIF   (&IJBSGEN).SUPGEN                                        05450052
         ASYSCOM 7                                                      05500053
         L     7,IJBSPAVT-SYSCOM(,7)   SUPERV. ADDRESS VECTOR           05550053
         AGO   .COMGEN                                                  05600052
.SUPGEN  ANOP                                                           05650052
         L     7,IJBSPAVT              SUPERV. ADDRESS VECTOR           05700053
.COMGEN  ANOP                                                           05750052
         L     7,ASFIXSUB-SUPAVT(,7)   ROUTINE ADDRESS                  05800053
*        AMODESW CALL,REGS=(7,7)                               @D53NDRP 05850053
         AMODESW CALL,REGS=(7,7)                                        05900053
         ST    15,16+6*4(,2)                                            05950053
         LM    9,8,16(2)               RESTORE ALL REGISTERS            06000053
.MEND    ANOP                                                           06300052
         MEND                                                           06350052
