*% GOTO SRCHFPLS ;  /*   PL/S COMMENT COVERING ASSEMBLER CODE           00050000
      MACRO                                                             00100000
&NAME    SRCHFLD &FIELD=,                                              *00150000
               &VALUE=,                                                *00200000
               &PU=                                                     00250000
.*                                                                      00300000
         LCLA  &FC                            FUNCTION CODE             00350000
.*                                                                      00400000
***************************************************************         00450000
*                                                             *@D51MDGL 00500000
.*       IBM VSE / ADVANCED FUNCTIONS                         *@D51MDGL 00550000
*        SUPERVISOR - SRCHFLD - 5686-007-06-C440              *@D31UDGN 00600000
.*                                                                      00650000
         AGO   .CPRIGHT                                                 00700000
.*                                                                      00750000
*        LICENSED MATERIALS - PROGRAM PROPERTY OF IBM         *@D51MDGL 00800000
*        THIS MACRO IS "RESTRICTED MATERIALS OF IBM"          *@D51MDGL 00850000
*        5686-007 (C) COPYRIGHT IBM CORP. 1979, 1989          *@D31UDGN 00900000
*        SEE COPYRIGHT INSTRUCTIONS                           *@D51MDGL 00950000
.*                                                                      01000000
.CPRIGHT ANOP                                                           01050000
*                                                             *@D51MDGL 01100000
***************************************************************         01150000
.*                                                                      01200000
.**** START OF SPECIFICATIONS ***************************************** 01250000
.*                                                                      01300000
.*01* MODULE-TYPE = MACRO                                               01350000
.*                                                                      01400000
.*01* DESCRIPTIVE NAME = SEARCH DEVICE CORRESPONDING TO GIVEN           01450000
.*                       FIELD VALUE                                    01500000
.*                                                                      01550000
.*  STATUS           =  NEW MACRO - FIRST RELEASE 2.1                   01600000
.*  FUNCTION         =  THE MACRO CHECKS THE USER SUPPLIED              01650000
.*                      OPERANDS AND SETS THE CORRESPONDING             01700000
.*                      FUNCTION CODE FOR SVC107.                       01750000
.*  NOTES            =  NONE                                            01800000
.*  DEPENDENCIES     =  NONE                                            01850000
.*  RESTRICTIONS     =  NONE                                            01900000
.*  REGISTER CONVENT.=  REGISTER  0 CONTAINS PUB INDEX                  01950000
.*                      REGISTER  1 CONTAINS SEARCH ARGUMENT            02000000
.*                      REGISTER 15 CONTAINS THE FUNCTION CODE          02050000
.*  PATCH LABEL      =  NONE                                            02100000
.*  MACRO TYPE       =  BILINGUAL                                       02150000
.*  PROCESSOR        =  ASM/PLS                                         02200000
.*  MACRO SIZE       =                                                  02250000
.*  ATTRIBUTES       =  NONE                                            02300000
.*  ENTRY POINT      =  SRCHFLD                                         02350000
.*  PURPOSE          =  SEE FUNCTION                                    02400000
.*  LINKAGE          =  SEE INPUT                                       02450000
.*  CALLER           =                                                  02500000
.*  INPUT            =                                                  02550000
.*                                                                      02600000
.*  CALLING SEQUENCE  ASSEMBLER :                                       02650000
.*                                                                      02700000
.*        LABEL   SRCHFLD  FIELD=NAME1                                  02750000
.*                        ,VALUE=NAME2|(R2)|(1)                         02800000
.*                       (,PU=NAME3|(R3)|(0))                           02850000
.*                                                                      02900000
.*  CALLING SEQUENCE  PLS :                                             02950000
.*                                                                      03000000
.*      ? LABEL:  SRCHFLD  FIELD(NAME1)                                 03050000
.*                         VALUE((NAME2)|(R2)|(1))                      03100000
.*                       ( PU((NAME3)|(R3)|(0));)                       03150000
.*                                                                      03200000
.*                      FIELD =                                         03250000
.*                        CHNUNIT   CUU TO BE SEARCHED FOR              03300000
.*                        DEVTYPE   DEVICE TYPE TO BE SEARCHED FOR      03350000
.*                      VALUE =                                         03400000
.*                             NAME OF A 4 BYTE FIELD OR REGISTER       03450000
.*                             CONTAINING THE RIGHT ADJUSTED VALUE      03500000
.*                             TO BE SEARCHED FOR                       03550000
.*                      PU   =                                          03600000
.*                             PHYSICAL UNIT NUMBER (SAME AS PUB        03650000
.*                             INDEX) OF DEVICE AT WHICH SEARCHING      03700000
.*                             HAS TO START. IF OMITTED, SEARCHING      03750000
.*                             STARTS WITH THE LOWEST PHYSICAL          03800000
.*                             UNIT NUMBER.                             03850000
.*                                                                      03900000
.*  OUTPUT(ASSEMBLER)= NECESSARY INSTRUCTIONS TO LOAD                   03950000
.*                     REGISTER 0,1 AND 15                              04000000
.*                     AND TO GENERATE SVC 107                          04050000
.*                                                                      04100000
.*                     FUNCTIONCODES USED FOR SRCHFLD (HEX)             04150000
.*                         CHNUNIT  :   42                              04200000
.*                         DEVTYPE  :   43                              04250000
.*                                                                      04300000
.*  MACROS GENERATING SVC 107 :                                         04350000
.*         GETFLD,   MODFLD,   TREADY,   TSTOP,   RLOCK,                04400000
.*         SRCHFLD,  DEVUSE,   DEVREL,   ENTER,   LEAVE,                04450000
.*         VIOPOINT                                                     04500000
.*                                                                      04550000
.*   ====> CHECK SUPERVISOR GENERATION MACRO SGTINF FOR HIGHEST         04600000
.*   ====> USED FUNCTION CODE WHEN EXTENDING SRCHFLD                    04650000
.*                                                                      04700000
.*  OUTPUT(EXECUTION)=  RETURN CODE IN REGISTER 15 :                    04750000
.*                              0 MATCH FOUND                           04800000
.*                              4 NO MATCH FOUND                        04850000
.*                      REGISTER 0 :                                    04900000
.*                      IF RC = 0 THEN                                  04950000
.*                              PUB INDEX OF MATCHING ENTRY             05000000
.*                         ELSE                                         05050000
.*                              INITIAL VALUE                           05100000
.*                                                                      05150000
.*  EXIT NORMAL      =  COMPILER :                                      05200000
.*                      MACRO EXPANSION                                 05250000
.*                      EXECUTION:                                      05300000
.*                      CONTROL RETURNED TO USER                        05350000
.*                                                                      05400000
.*  EXIT ERROR       =  COMPILER :                                      05450000
.*                      MNOTES INDICATING THE ERROR                     05500000
.*                      EXECUTION:                                      05550000
.*                      RETURN CODES (SEE OUTPUT)                       05600000
.*                                                                      05650000
.*                                                                      05700000
.*  EXTERNAL REFEREN.=  NONE                                            05750000
.*  ROUTINES         =  SVC 107 (SUPERVISOR GENERATION MACRO SGTINF)    05800000
.*  DATA AREAS       =  NONE                                            05850000
.*  CONTROL BLOCKS   =  NONE                                            05900000
.*  TABLES           =  NONE                                            05950000
.*  MACROS           =  NONE                                            06000000
.*  CHANGE ACTIVITIES=  NEW MACRO   FIRST RELEASE 2.1                   06050000
.*  MODIFIED REGISTER=  REGISTER 0,1 AND 15                             06100000
.*                                                                      06150000
.*  A000000-999999                                             @D14CDWK 06200000
.*                                                                      06250000
.** END OF SPECICATIONS *********************************************** 06300000
.*                                                                      06350000
.*--------------------------------------------------------------------- 06400000
.*       CHECK MACRO OPERANDS                                           06450000
.*--------------------------------------------------------------------- 06500000
.*                                                                      06550000
         AIF   (T'&FIELD EQ 'O').NOTE01       FIELD MUST BE SPECIFIED   06600000
         AIF   (T'&VALUE EQ 'O').NOTE03       VALUE MUST BE SPECIFIED   06650000
         AIF   ('&VALUE' EQ '(0)').NOTE04     VALUE MUST NOT BE REG.0   06700000
         AIF   ('&FIELD' EQ 'CHNUNIT').SETFC42                          06750000
         AIF   ('&FIELD' EQ 'DEVTYPE').SETFC43                          06800000
         AGO   .NOTE02                        INVALID FIELD NAME        06850000
.*                                                                      06900000
.*--------------------------------------------------------------------- 06950000
.*       SET FUNCTION CODE                                              07000000
.*--------------------------------------------------------------------- 07050000
.*                                                                      07100000
.SETFC42 ANOP                                                           07150000
&FC      SETA  66                             FC FOR CHNUNIT            07200000
         AGO   .SETLBL                                                  07250000
.SETFC43 ANOP                                                           07300000
&FC      SETA  67                             FC FOR DEVTYPE            07350000
.*                                                                      07400000
.SETLBL  ANOP                                                           07450000
&NAME    DC    0H'0'                                                    07500000
.*                                                                      07550000
.*--------------------------------------------------------------------- 07600000
.*       CHECK AND SET PUB INDEX                                        07650000
.*--------------------------------------------------------------------- 07700000
.*                                                                      07750000
         AIF   (T'&PU EQ 'O').CLRPU           PUB INDEX OMITTED         07800000
         AIF   ('&PU' EQ '(0)').CHKVAL        PUB INDEX ALREADY LOADED  07850000
         AIF   ('&PU'(1,1) EQ '(').PUREG      REGISTER NOTATION         07900000
         LH    0,&PU                          LOAD PUB INDEX            07950000
         AGO   .CHKVAL                                                  08000000
.PUREG   ANOP                                                           08050000
         LR    0,&PU(1)                       LOAD PUB INDEX            08100000
         AGO   .CHKVAL                                                  08150000
.CLRPU   ANOP                                                           08200000
         SLR   0,0                            LOAD PUB INDEX            08250000
.*                                                                      08300000
.*--------------------------------------------------------------------- 08350000
.*       CHECK AND SET VALUE OPERAND                                    08400000
.*--------------------------------------------------------------------- 08450000
.*                                                                      08500000
.CHKVAL  ANOP                                                           08550000
         AIF   ('&VALUE' EQ '(1)').GENFC      VALUE ALREADY LOADED      08600000
         AIF   ('&VALUE'(1,1) EQ '(').VALREG  REGISTER NOTATION         08650000
         L     1,&VALUE                       LOAD SEARCH ARGUMENT      08700000
         AGO   .GENFC                                                   08750000
.VALREG  ANOP                                                           08800000
         LR    1,&VALUE(1)                    LOAD SEARCH ARGUMENT      08850000
.*                                                                      08900000
.*--------------------------------------------------------------------- 08950000
.* GENERATE FUNCTION CODE AND SVC                                       09000000
.*--------------------------------------------------------------------- 09050000
.*                                                                      09100000
.GENFC   ANOP                                                           09150000
         LA    15,&FC                         SET FUNCTION CODE         09200000
         SVC   107                            HANDLE REQUEST            09250000
         MEXIT                                                          09300000
.*                                                                      09350000
.*--------------------------------------------------------------------- 09400000
.*       MNOTES                                                         09450000
.*--------------------------------------------------------------------- 09500000
.*                                                                      09550000
.NOTE01  MNOTE 8,'FIELD OPERAND REQUIRED FOR SRCHFLD MACRO'             09600000
         MEXIT                                                          09650000
.NOTE02  MNOTE 8,'&FIELD IS INVALID FOR FIELD OPERAND'                  09700000
         MEXIT                                                          09750000
.NOTE03  MNOTE 8,'VALUE OPERAND REQUIRED FOR SRCHFLD MACRO'             09800000
         MEXIT                                                          09850000
.NOTE04  MNOTE 8,'REGISTER 0 MUST NOT BE USED FOR VALUE OPERAND'        09900000
         MEXIT                                                          09950000
         MEND                                                           10000000
*                                                                       10050000
*---------------------------------------------------------------------- 10100000
*---------------------------------------------------------------------- 10150000
*        PL/S PART OF MACRO FOLLOWS                                     10200000
*---------------------------------------------------------------------- 10250000
*---------------------------------------------------------------------- 10300000
*                                      END OF PL/S COMMENT           */ 10350000
*%SRCHFPLS :  ;                                                         10400000
*%SRCHFLD: MACRO   KEYS(FIELD,                                          10450000
*                  VALUE,                                               10500000
*                  PU);                                                 10550000
* /*-----------------------------------------------------------------*/ 10600000
* /*     LIST MACRO INVOCATION IN SOURCE                             */ 10650000
* /*-----------------------------------------------------------------*/ 10700000
*    ANS ('/* '||MACLABEL||' '||MACNAME||' '||MACLIST||' '||MACKEYS||   10750000
*         '*/') COL(MACLMAR);                                           10800000
* ANS ('/*                                                     */')     10850000
* COL(MACLMAR);                                                         10900000
* ANS ('/*      SUPERVISOR - SRCHFLD - 5686-007-06-C44         */')     10950000
* COL(MACLMAR);                                                         11000000
* ANS ('/*                                                     */')     11050000
* COL(MACLMAR);                                                         11100000
* /*-----------------------------------------------------------------*/ 11150000
* /*     CHECK SPECIFIED OPERANDS                                    */ 11200000
* /*-----------------------------------------------------------------*/ 11250000
*    IF NUMBER(FIELD) = 0 THEN         /*                            */ 11300000
*       GO TO MERR01;                  /* FIELD OPERAND REQUIRED     */ 11350000
*    IF FIELD(1) ¬= 'CHNUNIT' &        /*                            */ 11400000
*       FIELD(1) ¬= 'DEVTYPE' THEN     /*                            */ 11450000
*       GO TO MERR03;                  /* INVALID FIELD NAME         */ 11500000
*    IF NUMBER(VALUE) = 0 THEN         /* VALUE OPERAND REQUIRED     */ 11550000
*       GO TO MERR02;                  /*                            */ 11600000
*    IF VALUE(1) = '0' THEN            /* VALUE OPERAND REGISTER 0   */ 11650000
*       GO TO MERR04;                  /*                            */ 11700000
* /*-----------------------------------------------------------------*/ 11750000
* /*     DECLARE NECESSARY REGISTER                                  */ 11800000
* /*-----------------------------------------------------------------*/ 11850000
* IF PU(1) ¬= '0' THEN                 /* PU OPERAND NOT REGISTER 0  */ 11900000
*   DO;                                /* THEN DECLARE REGISTER 0    */ 11950000
*   ANS ('DCL REG0'||MACINDEX||' REG(0) PTR(31);')RESCAN SKIP COL(10);  12000000
*   ANS ('/* SPECIFY REGISTER 0        */') COL(41);                    12050000
*   END;                               /*                            */ 12100000
* ELSE;                                /*                            */ 12150000
* IF VALUE(1) ¬= '1' THEN              /* VALUE OPERAND NOT REG.1    */ 12200000
*   DO;                                /* THEN DECLARE REGISTER 1    */ 12250000
*   ANS ('DCL REG1'||MACINDEX||' REG(1) PTR(31);')RESCAN SKIP COL(10);  12300000
*   ANS ('/* SPECIFY REGISTER 1        */') COL(41);                    12350000
*   END;                               /*                            */ 12400000
* ELSE;                                /*                            */ 12450000
* ANS ('DCL REGF'||MACINDEX||' REG(15) PTR(31);')RESCAN SKIP COL(10);   12500000
* ANS ('/* SPECIFY REGISTER 15       */') COL(41);                      12550000
*    IF PU(1) ¬= '0' THEN              /* PHYSICAL UNIT NOT REG. 0   */ 12600000
*       ANS ('RFY (REG0'||MACINDEX||') RSTD;')RESCAN SKIP COL(10);      12650000
*    IF VALUE(1) ¬= '1' THEN           /* VALUE OPERAND NOT REG. 1   */ 12700000
*       ANS ('RFY (REG1'||MACINDEX||') RSTD;')RESCAN SKIP COL(10);      12750000
*    ANS ('RFY (REGF'||MACINDEX||') RSTD;')RESCAN SKIP COL(10);         12800000
* IF MACLABEL ¬= ''  THEN              /* IF LABEL SPECIFIED         */ 12850000
* ANS (''||MACLABEL||';') COL(MACLMAR);                                 12900000
* /*-----------------------------------------------------------------*/ 12950000
* /*     SET OPERANDS                                                */ 13000000
* /*-----------------------------------------------------------------*/ 13050000
*    IF NUMBER(PU) = 0 THEN            /* PHYSICAL UNIT OMITTED      */ 13100000
*       DO;                            /*                            */ 13150000
*       ANS ('REG0'||MACINDEX||' = 0 ;')RESCAN SKIP COL(10);            13200000
*       ANS ('/* UNIT NUMBER OMITTED       */') COL(41);                13250000
*       END;                           /*                            */ 13300000
*    ELSE                              /*                            */ 13350000
*    IF PU(1) ¬= '0' THEN              /* PHYSICAL UNIT NOT REG. 0   */ 13400000
*       DO;                            /*                            */ 13450000
*       ANS ('REG0'||MACINDEX||' = '||PU(1)||';')RESCAN SKIP COL(10);   13500000
*       ANS ('/* LOAD UNIT NUMBER          */') COL(41);                13550000
*       END;                           /*                            */ 13600000
*    ELSE;                             /*                            */ 13650000
*    IF VALUE(1) ¬= '1' THEN           /* VALUE OPERAND NOT REG. 1   */ 13700000
*      DO;                             /*                            */ 13750000
*      ANS ('REG1'||MACINDEX||' = '||VALUE(1)||';')RESCAN SKIP COL(10); 13800000
*      ANS ('/* LOAD SEARCH ARGUMENT      */') COL(41);                 13850000
*      END;                            /*                            */ 13900000
*    ELSE;                             /*                            */ 13950000
* /*-----------------------------------------------------------------*/ 14000000
* /*     SET FUNCTION CODE AND SVC                                   */ 14050000
* /*-----------------------------------------------------------------*/ 14100000
*    IF FIELD(1) = 'CHNUNIT' THEN      /*                            */ 14150000
*       ANS ('REGF'||MACINDEX||' = 66 ;')RESCAN SKIP COL(10);           14200000
*    ELSE                              /*                            */ 14250000
*       ANS ('REGF'||MACINDEX||' = 67 ;')RESCAN SKIP COL(10);           14300000
*    ANS ('/* SET FUNCTION CODE         */') COL(41);                   14350000
* ANS ('SVC(107);') SKIP COL(10);                                       14400000
* ANS ('/*                           */') COL(41);                      14450000
*    IF PU(1) ¬= '0' THEN              /* PHYSICAL UNIT NOT REG. 0   */ 14500000
*       ANS ('RFY (REG0'||MACINDEX||') UNRSTD;')RESCAN SKIP COL(10);    14550000
*    IF VALUE(1) ¬= '1' THEN           /* VALUE OPERAND NOT REG. 1   */ 14600000
*       ANS ('RFY (REG1'||MACINDEX||') UNRSTD;')RESCAN SKIP COL(10);    14650000
*    ANS ('RFY (REGF'||MACINDEX||') UNRSTD;')RESCAN SKIP COL(10);       14700000
* RETURN CODE(0);                      /* EXIT                       */ 14750000
* /*-----------------------------------------------------------------*/ 14800000
* /*     MACRO NOTES                                                 */ 14850000
* /*-----------------------------------------------------------------*/ 14900000
* MERR01 :                             /*                            */ 14950000
* ANS MSG('FIELD OPERAND REQUIRED FOR SRCHFLD MACRO ;');                15000000
* ANS ('/* FIELD OPERAND REQUIRED FOR SRCHFLD MACRO */')COL(MACLMAR);   15050000
* RETURN CODE(8);                      /*                            */ 15100000
* MERR02 :                             /*                            */ 15150000
* ANS MSG('VALUE OPERAND REQUIRED FOR SRCHFLD MACRO ;');                15200000
* ANS ('/* VALUE OPERAND REQUIRED FOR SRCHFLD MACRO */')COL(MACLMAR);   15250000
* RETURN CODE(8);                      /*                            */ 15300000
* MERR03 :                             /*                            */ 15350000
* ANS MSG(''||FIELD||' IS INVALID FOR FIELD OPERAND ;')RESCAN;          15400000
* ANS ('/* '||FIELD||' IS INVALID FOR FIELD OPERAND */')RESCAN          15450000
* COL(MACLMAR);                                                         15500000
* RETURN CODE(8);                      /*                            */ 15550000
* MERR04 :                             /*                            */ 15600000
* ANS MSG('REGISTER 0 MUST NOT BE USED FOR VALUE OPERAND ;');           15650000
* ANS ('/* REGISTER 0 MUST NOT BE USED FOR VALUE OPERAND */')           15700000
* COL(MACLMAR);                                                         15750000
* RETURN CODE(8);                      /*                            */ 15800000
*%END ;                                /*                            */ 15850000
