         MACRO                                                          00050000
&NAME    SYSIO  &CCB,&KEYW                                              00100000
         LCLB  &BL                                                      00150000
.*       IBM DISK OPERATING SYSTEM                                      00200000
*        SUPERVISOR - SYSIO - 5686-007-06 - C44               @D34SDAP  00250000
         AGO   .ZZZ                                           @D31UDMZ  00300000
*        THIS MACRO IS "RESTRICTED MATERIALS OF IBM"          @D31UDMZ  00350000
*        5686-007 (C) COPYRIGHT IBM CORP. 1977,1989           @D31UDMZ  00400000
*        ALL RIGHTS RESERVED                                  @D31UDMZ  00450000
*        LICENSED MATERIALS-PROPERTY OF IBM                   @D31UDMZ  00500000
*        SEE COPYRIGHT INSTRUCTIONS, G120-2083                @D31UDMZ  00550000
.ZZZ     ANOP                                                 @D31UDMZ  00600000
         AIF   ('&CCB' EQ '').ERR        NO PARAMETER SPECIFIED         00650000
         AIF   (T'&KEYW EQ 'O').COND                                    00700000
         AIF   ('&KEYW'(1,2) EQ 'C').COND                               00750000
         AIF   ('&KEYW'(1,2) EQ 'U').UNC                                00800000
         MNOTE 5,'WRONG KEYWORD,MACRO IGNORED'                          00850000
         MEXIT                                                          00900000
.UNC     ANOP                                                           00950000
&BL      SETB  1                                                        01000000
.COND    AIF   ('&CCB'(1,1) EQ '(').L1   REG SPECIFIED                  01050000
&NAME    L     1,=A(&CCB)                                               01100000
         AGO   .GENSVC                                                  01150000
.L1      AIF   ('&CCB'(2,2) EQ '1)').L2                                 01200000
         AIF   (&BL).UNC2                                               01250000
&NAME    LA    1,0(&CCB(1))       ADDRESS OF HEAD QUEUE CCB    @D34SDAP 01300000
         AGO   .GENSVC                                         @D34SDAP 01350000
.L2      AIF   (NOT &BL).L3                                    @D34SDAP 01400000
&NAME    ICM   1,8,*              INDICATE UNCONDITIONAL I/O   @D34SDAP 01450000
         AGO   .GENSVC2                                                 01500000
.L3      ANOP                                                  @D34SDAP 01550000
&NAME    SVC   15                 HEAD QUEUE I/O REQUEST       @D34SDAP 01600000
         AGO   .GENSVC4                                        @D34SDAP 01650000
.GENSVC  AIF   (NOT &BL).GENSVC2                                        01700000
         ICM   1,8,*              INDICATE UNCONDITIONAL I/O   @D34SDAP 01750000
.GENSVC2 SVC   15                 HEAD QUEUE I/O REQUEST       @D34SDAP 01800000
.GENSVC4 TM    2(1),X'80'         HAS TRAFFIC BIT BEEN POSTED  @D34SDAP 01850000
         BO    *+6                YES                                   01900000
         SVC   7                  NO, WAIT FOR I/O COMPLETE    @D34SDAP 01950000
         MEXIT                                                          02000000
.UNC2    ANOP                                                           02050000
&NAME    LR    1,&CCB(1)          LOAD REGISTER 1                       02100000
         AGO   .GENSVC                                                  02150000
.ERR     MNOTE 5,'NO CCB SPECIFIED - MACRO IGNORED'                     02200000
         MEND                                                           02250000
