         MACRO                                                          00001001
&NAME    TDLOCK &FUNC=,                                                *00002001
               &TYPE=,                                                 *00003001
               &WR1=,                                                  *00004001
               &WR2=,                                                  *00005001
               &INP=,                                                  *00006001
               &FAIL=                                                   00007001
         LCLC  &LR                                                      00008001
         LCLC  &FAIL1                                                   00009001
.*       IBM DISK OPERATING SYSTEM                            *         00010001
         SPACE 1                                                        00011001
**************************************************                      00012001
*        SUPERVISOR - TDLOCK  - 5686-066                      *@D61RDIS 00013001
         AGO   .ZZZ                                           *         00014001
*        LICENSED MATERIALS - PROPERTY OF IBM                 *         00015001
*        THIS MACRO IS "RESTRICTED MATERIALS OF IBM"          *         00016001
*        5686-066 (C) COPYRIGHT IBM CORP. 1994                *@D61RDIS 00017001
*        SEE COPYRIGHT INSTRUCTIONS                           *         00018001
.ZZZ     ANOP                                                 *         00019001
.* /* START OF SPECIFICATIONS ********************************          00020001
.*01  MODULE TYPE      = SUPERVISOR GENERATION MACRO                    00021001
.*01  DESCRIPTIVE NAME = OBTAIN SPIN LOCKS                              00022001
.*01                   = RELEASE SPIN LOCKS                             00023001
.*01  NOTES            = CHANGE ACTIVITY                                00024001
.*    TURBO DISPATCHER SUPPORT                                 @D61RDIS 00025001
.*    A000000-999999                                                    00026001
.*02  PROCESSOR        = ASSEMBLER                                      00027001
.*END OF SPECIFICATIONS       *******************************/          00028001
         AIF   (T'&FUNC EQ 'O').FUNCERR                        @D61RDIS 00029001
         AIF   ('&FUNC' EQ 'OBTAIN').OBTAIN                    @D61RDIS 00030001
         AIF   ('&FUNC' EQ 'RELEASE').RELEASE                  @D61RDIS 00031001
         AIF   ('&FUNC' EQ 'RELCOND').RELCOND                  @D61RDIS 00032001
.FUNCERR ANOP                                                  @D61RDIS 00033001
         MNOTE 5,'FUNC SPECIFICATION OMITTED OR INVALID'       @D61RDIS 00034001
         MEXIT                                                 @D61RDIS 00035001
.REGERR  ANOP                                                  @D61RDIS 00036001
         MNOTE 5,'NOT ENOUGH WORK REGISTERS SPECIFIED'         @D61RDIS 00037001
         MEXIT                                                 @D61RDIS 00038001
.TYPERR  ANOP                                                  @D61RDIS 00039001
         MNOTE 5,'TYPE SPECIFICATION OMITTED OR INVALID'       @D61RDIS 00040001
         MEXIT                                                 @D61RDIS 00041001
.FAILERR ANOP                                                  @D61RDIS 00042001
         MNOTE 5,'FAIL SPECIFICATION NOT ALLOWED'              @D61RDIS 00043001
         MEXIT                                                 @D61RDIS 00044001
.* -----------------------------------------------------------          00045001
.* -----------------------------------------------------------          00046001
.RELCOND ANOP                                                           00047001
         AIF   (T'&TYPE EQ 'O').TYPERR                                  00048001
         AIF   ('&TYPE' EQ 'NP').RELCXXX                       @D61RDIS 00049001
         AIF   ('&TYPE' NE 'NPRAS').TYPERR                     @D61RDIS 00050001
.RELCXXX ANOP                                                           00051001
         AIF   (T'&FAIL NE 'O').FAILERR                                 00052001
         AIF   (T'&WR1 EQ 'O').REGERR                                   00053001
         AIF   (T'&INP EQ 'O').REGERR                                   00054001
*------------------------------------------------------------           00055001
*          - RELEASE SPIN LOCK - CONDITIONAL                            00056001
*            INPUT: RC - ADDRESS OF PSW TO BE LOADED                    00057001
*------------------------------------------------------------           00058001
         L     &WR1,TDCPUPTR      GET CPU'S CONTROL BLOCK      @D61RDIS 00059001
         L     &WR1,TCPUWRK-TCPUADR(,&WR1) GET WORK AREA ADDR. @D61RDIS 00060001
         AIF   ('&TYPE' NE 'NPRAS').NORAS                      @D61RDIS 00061001
         STM   R0,RF,TWSAVRAS-TWCPADR(&WR1) SAVE REGISTERS     @D61RDIS 00062001
         LA    R1,16              INDICATE NP CODE LOCK (COND.)@DY45266 00062101
         AGO   .RAS                                            @D61RDIS 00062201
.NORAS   ANOP                                                           00062301
         STM   R0,RF,TWSAVE-TWCPADR(&WR1) SAVE REGISTERS       @D61RDIS 00062401
         LA    R1,12              INDICATE NP CODE LOCK (COND.)@DY45266 00062501
.RAS     ANOP                                                           00062601
         LA    RF,88              SET FUNCTION CODE            @D61RDIS 00062701
         AGO   .COMMON                                         @D61RDIS 00062801
.* -----------------------------------------------------------          00062901
.* -----------------------------------------------------------          00063001
.RELEASE ANOP                                                           00064001
         AIF   (T'&TYPE EQ 'O').TYPERR                                  00065001
         AIF   (T'&FAIL NE 'O').FAILERR                                 00066001
         AIF   (T'&WR1 EQ 'O').REGERR                                   00067001
*-----------------------------------------------------------            00068001
*          - RELEASE SPIN LOCK - UNCONDITIONAL                          00069001
*-----------------------------------------------------------            00070001
         L     &WR1,TDCPUPTR      GET CPU'S CONTROL BLOCK      @D61RDIS 00071001
         L     &WR1,TCPUWRK-TCPUADR(,&WR1) GET WORK AREA ADDR. @D61RDIS 00072001
         STM   R0,RF,TWSAVE-TWCPADR(&WR1) SAVE REGISTERS       @D61RDIS 00073001
         LA    RF,88              SET FUNCTION CODE            @D61RDIS 00074001
         AIF   ('&TYPE' NE 'NP').LTSC                          @D61RDIS 00075001
         SLR   R1,R1              INDICATE NP CODE LOCK        @D61RDIS 00076001
         AGO   .COMMON                                         @D61RDIS 00077001
.LTSC    ANOP                                                  @D61RDIS 00078001
         AIF   ('&TYPE' NE 'TSCP').LDEBUG                      @D61RDIS 00079001
         LA    R1,8               INDICATE TSC LOCK            @D61RDIS 00080001
         AGO   .COMMON                                         @D61RDIS 00081001
.LDEBUG  ANOP                                                  @D61RDIS 00082001
         AIF   ('&TYPE' NE 'DEBUG').TYPERR                     @D61RDIS 00083001
         LA    R1,4               INDICATE DEBUG LOCK          @D61RDIS 00084001
         AGO   .COMMON                                         @D61RDIS 00085001
.* -----------------------------------------------------------          00086001
.* -----------------------------------------------------------          00087001
.OBTAIN  ANOP                                                           00088001
         AIF   (T'&WR1 EQ 'O').REGERR                                   00089001
         AIF   (T'&TYPE EQ 'O').TYPERR                                  00090001
         AIF   (T'&FAIL EQ 'O').TESTE                                   00091001
&LR      SETC  'A'                                                      00092001
&FAIL1   SETC  '&FAIL'                                                  00093001
         AIF   ('&FAIL'(1,1) NE '(').TEST0                              00094001
&LR      SETC  'R'                                                      00095001
&FAIL1   SETC  '&FAIL(1)'                                               00096001
.* -----------------------------------------------------------          00097001
.TEST0   ANOP                                                           00098001
         AIF   (T'&WR2 EQ 'O').REGERR                                   00099001
         L&LR  &WR2,&FAIL1        GET EXIT ADDRESS             @D61RDIS 00100001
.TESTE   ANOP                                                           00101001
*-----------------------------------------------------------            00102001
*          - OBTAIN SPIN LOCK                                           00103001
         L     &WR1,TDCPUPTR      GET CPU'S CONTROL BLOCK      @D61RDIS 00104001
         L     &WR1,TCPUWRK-TCPUADR(,&WR1) GET WORK AREA ADDR. @D61RDIS 00105001
         AIF   ('&TYPE' NE 'NPRAS').NORAS0                     @D61RDIS 00106001
         STM   R0,RF,TWSAVRAS-TWCPADR(&WR1) SAVE REGISTERS     @D61RDIS 00107001
         AGO   .RAS0                                           @D61RDIS 00108001
.NORAS0  ANOP                                                           00109001
         STM   R0,RF,TWSAVE-TWCPADR(&WR1) SAVE REGISTERS       @D61RDIS 00110001
.RAS0    ANOP                                                           00111001
         AIF   (T'&FAIL EQ 'O').TESTL                                   00112001
*            CONDITIONAL                                                00113001
         LA    R3,1               INDICATE NO SPIN LOOP                 00114001
         AGO   .TESTR                                                   00115001
.TESTL   ANOP                                                           00116001
*            UNCONDITIONAL                                              00117001
         SLR   R3,R3              INDICATE SPIN LOOP           @D61RDIS 00118001
.TESTR   ANOP                                                           00119001
*-----------------------------------------------------------            00120001
         AIF   ('&TYPE' EQ 'NPRAS').OBTRAS                     @DY45266 00121001
         AIF   ('&TYPE' NE 'NP').OBTDEB                                 00122001
         SLR   R1,R1              INDICATE NP CODE LOCK        @D61RDIS 00123001
         AGO   .OBTCOM                                                  00124001
.OBTDEB  ANOP                                                           00125001
         AIF   ('&TYPE' NE 'DEBUG').TYPERR                              00126001
         LA    R1,4               INDICATE DEBUG LOCK          @D61RDIS 00127001
         AGO   .OBTCOM                                                  00128001
.OBTRAS  ANOP                                                           00129001
         LA    R1,8               INDICATE NP CODE LOCK BY RAS @DY45266 00130001
         AGO   .OBTCOM                                                  00131001
.OBTCOM  ANOP                                                           00132001
         LA    RF,84              SET FUNCTION CODE            @D61RDIS 00133001
.* -----------------------------------------------------------          00134001
.*       - COMMON PART                                                  00135001
.* -----------------------------------------------------------          00136001
.COMMON  ANOP                                                           00137001
         L     RD,ADISPRT         GET DISP ROUTINE ADDRESS     @D61RDIS 00138001
         BASSM RE,RD               CALL IJBDISP ROUTINE        @D61RDIS 00139001
         AIF   (T'&FAIL EQ 'O').TESTX                                   00140001
         LTR   R3,R3              RESOURCE FREE ?              @D61RDIS 00141001
.TESTX   ANOP                                                           00142001
         L     R9,TDCPUPTR      GET CPU'S CONTROL BLOCK        @D61RDIS 00143001
         L     R9,TCPUWRK-TCPUADR(,R9) GET WORK AREA ADDR.     @D61RDIS 00144001
         AIF   ('&TYPE' NE 'NPRAS').NORAS1                     @D61RDIS 00145001
         LM    R0,RF,TWSAVRAS-TWCPADR(R9)   RESTORE REGISTERS  @D61RDIS 00146001
         AGO   .RAS1                                           @D61RDIS 00147001
.NORAS1  ANOP                                                           00148001
         LM    R0,RF,TWSAVE-TWCPADR(R9)   RESTORE REGISTERS    @D61RDIS 00149001
.RAS1    ANOP                                                           00150001
         AIF   (T'&FAIL EQ 'O').TESTX1                                  00151001
         BNZR  &WR2               NO, CONT. WITH SPECIFIED EXIT@D61RDIS 00152001
.TESTX1  ANOP                                                           00153001
         MEXIT                                                          00154001
         MEND                                                           00155001
