         MACRO                                                          00050000
&NAME    TRANSCSW &ACCW,&CCB                                            00100000
.* IBM DISK OPERATING SYSTEM                                            00150000
* SUPERVISOR - TRANSCSW- 5686-007-06-C44                                00200000
.************************************************************* @D31UDRP 00250000
.*                                                           * @D31UDRP 00300000
       AGO  .ZZZ                                             * @D31UDRP 00350000
*      THIS MACRO IS "RESTRICTED MATERIALS OF IBM"           * @D31UDRP 00400000
*      5686-007 (C) COPYRIGHT IBM CORP. 1977, 1988           * @D31UDRP 00450000
*      ALL RIGHTS RESERVED                                   * @D31UDRP 00500000
*      LICENSED MATERIALS-PROPERTY OF IBM                    * @D31UDRP 00550000
.*     SEE COPYRIGHT INSTRUCTIONS, G120-2083                 * @D31UDRP 00600000
.ZZZ   ANOP                                                  * @D31UDRP 00650000
.************************************************************* @D31UDRP 00700000
         AIF   (T'&ACCW EQ 'O' OR T'&CCB EQ 'O').ERR                    00750000
&NAME    DS    0H                 ENSURE HALFWORD BOUNDARY              00800000
         AIF   ('&ACCW'(1,1) EQ '(').R1                                 00850000
         L     0,=A(&ACCW) .      LOAD ADDR. OF COPIED CCW              00900000
         AGO   .TSTOP2                                                  00950000
.R1      AIF   ('&ACCW'(2,2) EQ '0)').TSTOP2                            01000000
         LR    0,&ACCW(1) .       LOAD ADDR. OF COPIED CCW              01050000
.TSTOP2  AIF    ('&CCB'(1,1) EQ '(').R2                                 01100000
         L     1,=A(&CCB) .       LOAD ADDR.OF COPIED CCB               01150000
.GEN     SVC   77 .               GET ADDR.OF ORIGINAL CCW              01200000
         MEXIT                                                          01250000
.R2      AIF   ('&CCB'(2,3) EQ '1)').GEN                                01300000
         LR    1,&CCB(1) .        LOAD ADDR.OF COPIED CCW               01350000
         AGO   .GEN                                                     01400000
.ERR     MNOTE 5,'INCORRECT PARAMETER SPECIFICATION, MACRO IGNORED'     01450000
         MEND                                                           01500000
