*% GOTO VIOPLS ;  /*   PL/S COMMENT COVERING ASSEMBLER CODE             00050000
      MACRO                                                             00100000
&NAME    VIO   &FC,                                                    *00150000
               &SIZE=,                                                 *00200000
               &SCOPE=,                                                *00250000
               &PROC=,                                                 *00300000
               &VIORB=,                                                *00350000
               &RBA=,                                          @D14BDFG*00400000
               &LEN=,                                          @D14BDFG*00450000
               &FROM=,                                         @D14BDFG*00500000
               &TO=,                                           @D14BDFG*00550000
               &MFG=                                           @D14BDFG 00600000
.*                                                                      00650000
         LCLA  &SVC                                                     00700000
         LCLA  &FCFLAG                                                  00750000
         LCLA  &RBAFLG                                                  00800000
         LCLA  &SIZFLG                                                  00850000
         LCLA  &SCOFLG                                                  00900000
         LCLA  &PROFLG                                                  00950000
         LCLA  &VIORBFL                                                 01000000
         LCLA  &LNKFLG                                                  01050000
         LCLC  &SIZVAL                                                  01100000
         LCLC  &LABEL                                                   01150000
         LCLC  &BADDR                                                   01200000
         LCLC  &TADDR                                                   01250000
.*                                                                      01300000
.*       IBM DISK OPERATING SYSTEM                                      01350000
*        SUPERVISOR - VIO - 5686-066-06                                 01400061
.*************************************************************          01450000
.*                                                           *          01500000
       AGO  .ZZZ                                             * @D31UDRP 01550000
*      LICENSED MATERIALS-PROPERTY OF IBM                    * @D31UDRP 01750000
*      THIS MACRO IS "RESTRICTED MATERIALS OF IBM"           * @D31UDRP 01775061
*      5686-066 (C) COPYRIGHT IBM CORP. 1977, 1995           * @D31UDRP 01800061
.*     SEE COPYRIGHT INSTRUCTIONS                            * @D31UDRP 01825061
.ZZZ   ANOP                                                  * @D31UDRP 01850000
.*************************************************************          01900000
.**** START OF SPECIFICATIONS ***************************************** 01950000
.*                                                                      02000000
.*01* MODULE-TYPE = MACRO                                               02050000
.*                                                                      02100000
.*01* DESCRIPTIVE NAME = VIO WORK AREA SERVICES                         02150000
.*                                                                      02200000
.*  STATUS           =  NEW MACRO - FIRST RELEASE AF 2.1                02250000
.*                                                                      02300000
.*  FUNCTION         =  FUNCTIONS SERVICED BY THIS MACRO ARE            02350000
.*                      .OPEN A VIO AREA      FC:OPEN                   02400000
.*                      .EXTEND A VIO AREA    FC:EXTND                  02450000
.*                      .CLOSE A VIO AREA     FC:CLOSE                  02500000
.*                      .ACCESSING A VIO      FC:POINT                  02550000
.*                      THE MACRO CHECKS THE USER SUPPLIED              02600000
.*                      OPERANDS AND GENERATES THE CODE NECESSARY       02650000
.*                      TO CALL THE REQUIRED FUNCTION.                  02700000
.*  NOTES            =  NONE                                            02750000
.*  DEPENDENCIES     =  NONE                                            02800000
.*  RESTRICTIONS     =  NONE                                            02850000
.*  REGISTER CONVENT.=  REGISTER 0,1 AND 15 USED                        02900000
.*  PATCH LABEL      =  NONE                                            02950000
.*  MACRO TYPE       =  BILINGUAL                                       03000000
.*  PROCESSOR        =  ASM  PL/S                                       03050000
.*  MACRO SIZE       =  SEE MACRO EXPANSION                             03100000
.*  ATTRIBUTES       =                                                  03150000
.*  ENTRY POINT      =  VIO                                             03200000
.*  PURPOSE          =  SEE FUNCTION                                    03250000
.*  LINKAGE          =  SEE INPUT                                       03300000
.*  CALLER           =                                                  03350000
.*  INPUT            =                                                  03400000
.*                                                                      03450000
.*  CALLING SEQUENCE  ASSEMBLER :                                       03500000
.*                                                                      03550000
.*        LABEL   VIO    (OPEN | CLOSE | EXTND | POINT )                03600000
.*                        ,SIZE=( NK | (R1) | (0))                      03650000
.*                        ,RBA=((R2) | (0))                             03700000
.*                       (,VIORB=((R3) | (1)))                          03750000
.*                       (,SCOPE=(STEP | JOB))                          03800000
.*                       (,PROC=(SYNCH | ASYNCH))                       03850000
.*                       OR                                             03900000
.*                       MOVE                                           03950000
.*                        ,LEN=( N1 | (R1))                             04000000
.*                        ,FROM=(NAME2 | (R2) | (R21,R22))              04050000
.*                        ,TO=(NAME3 | (R3) | (R31,R32))                04100000
.*                       (,MFG=(NAME | (R4) | (1)))                     04150000
.*                                                                      04200000
.*  CALLING SEQUENCE  PLS :                                             04250000
.*                                                                      04300000
.*      ? LABEL:  VIO    ((OPEN)|(CLOSE)|(EXTND)|(POINT))               04350000
.*                         SIZE((NK)|((R1))|(0))                        04400000
.*                         RBA(((R2))|(0))                              04450000
.*                        (VIORB(((R3))|(1)))                           04500000
.*                        (SCOPE((STEP)|(JOB)))                         04550000
.*                        (PROC((SYNCH)|(ASYNCH)));                     04600000
.*                       OR                                             04650000
.*                       (MOVE)                                         04700000
.*                         LEN((N1)|((R1)))                             04750000
.*                         FROM((NAME2)|((R2))|((R21,R22)))             04800000
.*                         TO((NAME3))|((R3))|((R31,R32)))              04850000
.*                        (MFG((NAME)|((R4))|((1))))                    04900000
.*                                                                      04950000
.*  FUNCTION RELATED OPERANDS :                                         05000000
.*                                                                      05050000
.*        -------------------------------------------------             05100000
.*        | OPER. | OPEN  | EXTND | POINT | CLOSE | MOVE  |             05150000
.*        -------------------------------------------------             05200000
.*        | SIZE  |  REQ  |  REQ  |  N/A  |  N/A  |  N/A  |             05250000
.*        | SCOPE |  OPT* |  N/A  |  N/A  |  OPT  |  N/A  |             05300000
.*        | PROC  |  OPT* |  N/A  |  N/A  |  N/A  |  N/A  |             05350000
.*        | VIORB |  N/A  |  OPT  |  OPT  |  OPT  |  N/A  |             05400000
.*        | RBA   |  N/A  |  N/A  |  REQ  |  N/A  |  N/A  |             05450000
.*        | LEN   |  N/A  |  N/A  |  N/A  |  N/A  |  REQ  |             05500000
.*        | FROM  |  N/A  |  N/A  |  N/A  |  N/A  |  REQ  |             05550000
.*        | TO    |  N/A  |  N/A  |  N/A  |  N/A  |  REQ  |             05600000
.*        | MFG   |  N/A  |  N/A  |  N/A  |  N/A  |  OPT  |             05650000
.*        -------------------------------------------------             05700000
.*                                                                      05750000
.*        *  IF OMITTED DEFAULT VALUES ARE SET (SEE BELOW)              05800000
.*                                                                      05850000
.*                     SIZE  : UNIT IS K-BYTES FOR ABSOLUTE AND         05900000
.*                             BYTES FOR REGISTER NOTATION.             05950000
.*                             OPEN                                     06000000
.*                             AMOUNT OF SPACE TO BE ALLOCATED.         06050000
.*                             EXTND                                    06100000
.*                             AMOUNT OF ADDITIONAL SPACE TO BE         06150000
.*                             ALLOCATED LOGICALLY CONTIGUOUS TO        06200000
.*                             THE TO THE EXISTING AREA.                06250000
.*                                                                      06300000
.*                     SCOPE : LIFETIME OF THE WORK AREA :              06350000
.*                             OPEN                                     06400000
.*                             STEP : WORK AREA IS DEALLOCATED          06450000
.*                                    AT END OF JOB STEP.               06500000
.*                             JOB  : WORK AREA IS DEALLOCATED          06550000
.*                                    AT END OF JOB.                    06600000
.*                             DEFAULT : STEP                           06650000
.*                             CLOSE                                    06700000
.*                             UNCONDITIONAL DEALLOCATION OF ALL        06750000
.*                             VIO WORK AREAS BELONGING TO THE          06800000
.*                             ISSUING PARTITION WITH TH SPECIFIED      06850000
.*                             LIFETIME (SYSTEM USAGE ONLY).            06900000
.*                             DEFAULT : ZERO                           06950000
.*                                                                      07000000
.*                     PROC  : PROCESSING MODE                          07050000
.*                             SYNCH  : AFTER A VIOPOINT, THE           07100000
.*                                      ISSUING TASK IS SET TO          07150000
.*                                      WAIT UNTIL THE BLOCK IS         07200000
.*                                      AVAILABLE.                      07250000
.*                             ASYNCH : AFTER A VIOPOINT, CONTROL       07300000
.*                                      RETURNS TO ISSUING TASK         07350000
.*                                      AND A WAIT OR WAITM MUST        07400000
.*                                      BE GIVEN BEFORE ACCESSING       07450000
.*                                      THE REQUESTED BLOCK.            07500000
.*                             DEFAULT  : SYNCH                         07550000
.*                                                                      07600000
.*                     VIORB : EXTND,POINT OR CLOSE                     07650000
.*                             VIORB POINTER OF THE WORK AREA TO        07700000
.*                             WHICH THE SPECIFIED FUNCTION IS          07750000
.*                             REQUESTED.IF OMITTED, REGISTER 1         07800000
.*                             MUST CONTAIN THE VIORB POINTER.          07850000
.*                                                                      07900000
.*                     RBA   : POINT                                    07950000
.*                             RELATIVE BYTE ADDRESS WITHIN THE VIO     08000000
.*                             AREA, TO WHICH ADDRESSABILITY IS         08050000
.*                             REQUESTED.                               08100000
.*                                                                      08150000
.*                     LEN   : MOVE                                     08200000
.*                             NUMBER OF CONTIGUOUS BYTES TO BE MOVED.  08250000
.*                             FOR ABSOLUTE NOTATION MAXIMUM IS 4095.   08300000
.*                                                                      08350000
.*                     FROM  : MOVE                                     08400000
.*                             ADDRES OF SOURCE DATA AREA.              08450000
.*                             IF SYMBOLIC OR SINGLE REGISTER NOTATION  08500000
.*                             IS USED, AN ADDRESS IN VIRTUAL STORAGE   08550000
.*                             IS ASSUMED. DOUBLE REGISTER NOTATION     08600000
.*                             MUST BE USED TO SPECIFY A VIO ADDRESS.   08650000
.*                             IN THIS CASE, R21 IS INTERPRETED AS THE  08700000
.*                             VIORB POINTER OF A VIO AREA AND R22 AS   08750000
.*                             AN OFFSET (RBA) WITHIN THE VIO AREA.     08800000
.*                                                                      08850000
.*                     TO    : MOVE                                     08900000
.*                             ADDRES OF TARGET AREA.                   08950000
.*                             NOTATION CONVENTION SEE FROM OPERAND.    09000000
.*                                                                      09050000
.*                     MFG   : MOVE                                     09100000
.*                             ADDRES OF A 20 BYTE AREA, IN WHICH THE   09150000
.*                             PARAMETER LIST IS TO BE BUILD. IF        09200000
.*                             OMITTED, AN INLINE PARAMETER LIST AREA   09250000
.*                             IS GENERATED.                            09300000
.*                                                                      09350000
.*  OUTPUT(COMPILER )=                                                  09400000
.*                                                                      09450000
.*  -----------------------------------------------------------------   09500000
.*  |  FC   | SIZE  | SCOPE | PROC  | VIORB |  RBA  |  SVC  |FC-CODE|   09550000
.*  -----------------------------------------------------------------   09600000
.*  | OPEN  | REG0  | PARML | PARML |  N/A  |  N/A  |  114  |  0/ 0 |   09650000
.*  | EXTND | REG0  |  N/A  |  N/A  | )REG1 |  N/A  |  114  |  1/ 1 |   09700000
.*  | CLOSE |  N/A  | *REG0 |  N/A  | )REG1 |  N/A  |  114  |  2/ 2 |   09750000
.*  | POINT |  N/A  |  N/A  |  N/A  | )REG1 |  REG0 |  107  | 72/48 |   09800000
.*  -----------------------------------------------------------------   09850000
.*                                                                      09900000
.*     . * IF OMITTED, REGISTER 0 IS CLEARED                            09950000
.*     . ) IF OMITTED, REGISTER 1 MUST BE LOADED BY THE CALLER          10000000
.*     . THE FUNCTION-CODE IS PASSED IN REGISTER 15                     10050000
.*     . THE PARAMETER-LIST FOR OPEN IS POINTED TO BY REGISTER 1        10100000
.*       AND HAS THE LAYOUT AS FOLLOWS :                                10150000
.*                                                                      10200000
.*           0 ---------------------------------                        10250000
.*             | SCOPE | PROC  |   RESERVED    |                        10300000
.*             ---------------------------------                        10350000
.*                                                                      10400000
.*     . SCOPE OPTION BYTE OR REGISTER 0 :                              10450000
.*             X'10' SCOPE = JOB SPECIFIED                              10500000
.*             X'08' SCOPE = STEP SPECIFIED (DEFAULT)                   10550000
.*     . PROCESSING OPTION BYTE :                                       10600000
.*             X'80' PROC = ASYNCH SPECIFIED                            10650000
.*             X'00' PROC = SYNCH SPECIFIED (DEFAULT)                   10700000
.*                                                                      10750000
.*     . MOVE :                                                         10800000
.*             REG13 ASSUMED TO CONTAIN THE ADDRESS OF A 72-BYTE        10850000
.*                   SAVE AREA                                          10900000
.*             REG14 LINK REGISTER                                      10950000
.*             REG15 ADDRESS OF MOVE ROUTINE FROM VIORB                 11000000
.*             REG1  ADDRESS OF PARAMETER LIST:                         11050000
.*                                                                      11100000
.*             LABEL   DC    A(0)       LEN SPECIFICATION               11150000
.*                     DC    A(0)       FROM SPECIFICATION OR ZERO      11200000
.*                     DC    A(0)       FROM SPECIFICATION              11250000
.*                     DC    A(0)       TO SPECIFICATION OR ZERO        11300000
.*                     DC    A(0)       TO SPECIFICATION                11350000
.*                                                                      11400000
.*  OUTPUT(EXECUTION)=  RETURN CODES IN REGISTER 15                     11450000
.*                      OPEN      0  SUCCESSFUL ALLOCATION              11500000
.*                                8  NO MORE SPACE AVAILABLE            11550000
.*                      EXTND     0  ADDITIONAL SPACE ALLOCATED         11600000
.*                                8  NO MORE SPACE AVAILABLE            11650000
.*                      CLOSE     0  SUCCESSFUL DEALLOCATION            11700000
.*                      POINT     RESULTS RETURN IN THE VIORB           11750000
.*                      MOVE      0  OPERATION SUCCESSFUL               11800000
.*                                8  UNRECOVERABLE ERROR                11850000
.*                               12  INVALID INPUT                      11900000
.*                                                                      11950000
.*  EXIT NORMAL      =  MACRO EXPANSION                                 12000000
.*                                                                      12050000
.*  EXIT ERROR       =  MNOTES INDICATING THE ERROR                     12100000
.*                                                                      12150000
.*  EXTERNAL REFEREN.=  NONE                                            12200000
.*  ROUTINES         =  NONE                                            12250000
.*  DATA AREAS       =  NONE                                            12300000
.*  CONTROL BLOCKS   =  NONE                                            12350000
.*  TABLES           =  NONE                                            12400000
.*  MACROS           =  NONE                                            12450000
.*  CHANGE ACTIVITIES=  NEW MACRO   FIRST RELEASE AF 2.1                12500000
.*  MODIFIED REGISTER=  NONE                                            12550000
.*                                                                      12600000
.*  PARAMETERLIST NOT CLEARED FIRST IF MFG IS SPECIFIED        @D61NDRP 12625061
.*  A000000-999999                                             @D14BDWK 12650000
.*                                                                      12700000
.** END OF SPECICATIONS *********************************************** 12750000
.*                                                                      12800000
.*--------------------------------------------------------------------- 12850000
.*       CHECK SPECIFIED FUNCTION                                       12900000
.*--------------------------------------------------------------------- 12950000
.*                                                                      13000000
         AIF   (T'&FC EQ 'O').MNOTE01         FUNCTION REQUIRED         13050000
         AIF   ('&FC' EQ 'MOVE').CHOPNIN      CHK INV.OPERANDS @D14BDFG 13100000
&SVC     SETA  114                            SET SVC NUMBER            13150000
         AIF   ('&FC' EQ 'OPEN').CHOPNIN      CHECK INVAL OPEN OPERANDS 13200000
&FCFLAG  SETA  1                              INDICATE SCOPE = JOB      13250000
         AIF   ('&FC' EQ 'EXTND').CHCLEIN     CHECK INVAL EXT OPERANDS  13300000
&FCFLAG  SETA  2                              INDICATE SCOPE = JOB      13350000
         AIF   ('&FC' EQ 'CLOSE').CHCLEIN     CHECK INVAL CLS OPERANDS  13400000
&SVC     SETA  107                            SET SVC NUMBER            13450000
&FCFLAG  SETA  72                             INDICATE SCOPE = JOB      13500000
         AIF   ('&FC' EQ 'POINT').CHPNTIN     CHECK INVAL PNT OPERANDS  13550000
         AGO   .MNOTE01                       FUNCTION UNKNOWN          13600000
.*                                                                      13650000
.*--------------------------------------------------------------------- 13700000
.*       CHECK IF INVALID OPERANDS SPECIFIED                            13750000
.*--------------------------------------------------------------------- 13800000
.*                                                                      13850000
.CHOPNIN ANOP                                                           13900000
         AIF   (T'&VIORB NE 'O').MNOTE02      VIORB OPERAND N/A         13950000
.CHCLEIN ANOP                                                           14000000
         AIF   (T'&RBA NE 'O').MNOTE03        RBA OPERAND N/A           14050000
.CHPNTIN ANOP                                                           14100000
         AIF   ('&FC' EQ 'MOVE').CHMOVIN      SKIP FOR MOVE             14150000
         AIF   (T'&LEN NE 'O').MNOTE14        LEN OPERAND N/A           14200000
         AIF   (T'&FROM NE 'O').MNOTE15       FROM OPERAND N/A          14250000
         AIF   (T'&TO NE 'O').MNOTE16         TO OPERAND N/A            14300000
         AIF   ('&FC' EQ 'OPEN').CHSIZE       CHECK SIZE OPERAND        14350000
.CHMOVIN ANOP                                                           14400000
         AIF   (T'&PROC NE 'O').MNOTE04       PROC OPERAND N/A          14450000
         AIF   ('&FC' EQ 'CLOSE').CHCLSSI     CONT. INVAL CLS OPERANDS  14500000
         AIF   (T'&SCOPE NE 'O').MNOTE05      SCOPE OPERAND N/A         14550000
         AIF   ('&FC' EQ 'EXTND').CHSIZE      CHECK SIZE OPERAND        14600000
.CHCLSSI ANOP                                                           14650000
         AIF   (T'&SIZE NE 'O').MNOTE06       SIZE OPERAND N/A          14700000
         AIF   ('&FC' EQ 'MOVE').CHLEN        CHK LEN OPERAND  @D14BDFG 14750000
         AIF   ('&FC' EQ 'CLOSE').CHVIORB     CHECK VIORB OPERAND       14800000
.*                                                                      14850000
.*--------------------------------------------------------------------- 14900000
.*       CHECK RBA OPERAND FOR FC=POINT                                 14950000
.*--------------------------------------------------------------------- 15000000
.*                                                                      15050000
.CHRBA   ANOP                                                           15100000
         AIF   (T'&RBA EQ 'O').MNOTE07        RBA OPERAND REQUIRED      15150000
         AIF   ('&RBA'(1,1) NE '(').MNOTE08   REG. NOTATION REQUIRED    15200000
         AIF   ('&RBA' EQ '(0)').CHVIORB      RBA ALLREADY LOADED       15250000
&RBAFLG  SETA  1                              INDICATE REGISTER VALUE   15300000
         AGO   .CHVIORB                                                 15350000
.*                                                                      15400000
.*--------------------------------------------------------------------- 15450000
.*       CHECK SIZE OPERAND FOR OPEN AND EXTND                          15500000
.*--------------------------------------------------------------------- 15550000
.*                                                                      15600000
.CHSIZE  ANOP                                                           15650000
         AIF   (T'&SIZE EQ 'O').MNOTE09       SIZE OPERAND REQUIRED     15700000
         AIF   ('&SIZE' EQ '(0)').SKIPSIZ     SIZE ALLREADY LOADED      15750000
         AIF   ('&SIZE'(1,1) EQ '(').REGSIZ   GET REGISTER              15800000
         AIF   ('&SIZE'(K'&SIZE,1) NE 'K').MNOTE10                      15850000
&SIZVAL  SETC  '&SIZE'(1,K'&SIZE-1)           GET SIZE VALUE            15900000
&SIZFLG  SETA  2                              INDICATE ABS.NOTATION     15950000
         AGO   .SKIPSIZ                       CHECK FC TO CONTINUE      16000000
.REGSIZ  ANOP                                                           16050000
&SIZFLG  SETA  1                              INDICATE REG.NOTATION     16100000
.SKIPSIZ ANOP                                                           16150000
         AIF   ('&FC' EQ 'OPEN').CHSCOPE      CHECK SCOPE FOR OPEN      16200000
.*                                                                      16250000
.*--------------------------------------------------------------------- 16300000
.*       CHECK VIORB OPERAND FOR FC=EXTND,POINT OR CLOSE                16350000
.*--------------------------------------------------------------------- 16400000
.*                                                                      16450000
.CHVIORB ANOP                                                           16500000
         AIF   (T'&VIORB EQ 'O').CHCLS        CHECK IF FC=CLOSE         16550000
         AIF   ('&VIORB' EQ '(1)').CHCLS      CHECK IF FC=CLOSE         16600000
         AIF   ('&VIORB'(1,1) NE '(').MNOTE11 REG. NOTATION REQUIRED    16650000
&VIORBFL SETA  1                              INDICATE VIORB TO LOAD    16700000
.CHCLS   ANOP                                                           16750000
         AIF   ('&FC' NE 'CLOSE').GENEXP      GENERATE CODE             16800000
.*                                                                      16850000
.*--------------------------------------------------------------------- 16900000
.*       CHECK SCOPE OPERAND FOR FUNCTION OPEN AND CLOSE                16950000
.*--------------------------------------------------------------------- 17000000
.*                                                                      17050000
.CHSCOPE ANOP                                                           17100000
         AIF   (T'&SCOPE EQ 'O').CHKCLS       USE DEFAULT SCOPE VALUE   17150000
&SCOFLG  SETA  8                              INDICATE SCOPE = STEP     17200000
         AIF   ('&SCOPE' EQ 'STEP').CHKCLS    USE DEFAULT SCOPE VALUE   17250000
         AIF   ('&SCOPE' NE 'JOB').MNOTE12    INVALID VALUE             17300000
&SCOFLG  SETA  16                             INDICATE SCOPE = JOB      17350000
.CHKCLS  ANOP                                                           17400000
         AIF   ('&FC' EQ 'CLOSE').GENEXP      GENERATE CODE             17450000
&SCOFLG  SETA  8                              OPEN AND SCOPE=OMITTED    17500000
.*                                                                      17550000
.*--------------------------------------------------------------------- 17600000
.*       CHECK PROC OPERAND                                             17650000
.*--------------------------------------------------------------------- 17700000
.*                                                                      17750000
.CHPROC  ANOP                                                           17800000
         AIF   (T'&PROC EQ 'O').GENEXP        USE DEFAULT VALUE         17850000
         AIF   ('&PROC' EQ 'SYNCH').GENEXP    SAME AS DEFAULT VALUE     17900000
         AIF   ('&PROC' NE 'ASYNCH').MNOTE13  INVALID VALUE             17950000
&PROFLG  SETA  128                            INDICATE PROC = ASYNCH    18000000
.*                                                                      18050000
.*--------------------------------------------------------------------- 18100000
.*       GENERATE MACRO EXPANSION FOR OPEN/EXTND/POINT/CLOSE   @D14BDFG 18150000
.*--------------------------------------------------------------------- 18200000
.*                                                                      18250000
.GENEXP  ANOP                                                           18300000
&NAME    DC    0H'0'                                                    18350000
         AIF   ('&FC' EQ 'POINT').GENRBA      POINT EXPANSION           18400000
         AIF   ('&FC' EQ 'CLOSE').GENVIOR     CLOSE EXPANSION           18450000
         AIF   (&SIZFLG EQ 0).CHPARM          CHECK FOR OPEN            18500000