         MACRO                                                          00001000
&NAME    VSEDVLST  &DSECT=NO,&ADRNOOP=0,&ADRINV=0,&ADRCETI=0,          X00002000
               &ADRCONS=0,&ADRFBAV=0,&IPL=NO                   @D61DDAP 00003000
         LCLC      &LABNAM                                     @D61DDGL 00004000
         ACTR  100                                                      00004500
***************************************************************@D61DDGL 00005000
*                                                             *@D61DDGL 00006000
.*       IBM VSE / ADVANCED FUNCTIONS                         *@D61DDGL 00007000
*        SUPERVISOR - VSEDVLST- 5690-VSE-06                   *@D61DDGL 00008000
.*                                                             @D61DDGL 00009000
         AGO   .CPRIGHT                                        @D61DDGL 00010000
.*                                                             @D61DDGL 00011000
*        LICENSED MATERIALS - PROGRAM PROPERTY OF IBM         *@D61DDGL 00012000
*        THIS MACRO IS "RESTRICTED MATERIALS OF IBM"          *@D61DDGL 00013000
*        5690-VSE (C) COPYRIGHT IBM CORP. 1993, 2003          *@DY44020 00014000
*        SEE COPYRIGHT INSTRUCTIONS                           *@D61DDGL 00015000
.*                                                             @D61DDGL 00016000
.CPRIGHT ANOP                                                  @D61DDGL 00017000
*                                                             *@D61DDGL 00018000
***************************************************************@D61DDGL 00019000
         AGO   .SPECS                                          @D61DDGL 00020000
* /* START OF SPECIFICATIONS ********************************* @D379DGA 00021000
*                                                            * @D379DGA 00022000
*01* MODULE-NAME = VSEDVLST                                  * @D379DGA 00023000
*                                                            * @D379DGA 00024000
*01* DESCRIPTIVE-NAME = VSE DEVICE LIST                      * @D379DGA 00025000
*                                                            * @D379DGA 00026000
*    CONTAINS A LIST OF ALL DEVICES THAT CAN BE ADDED        * @D379DGA 00027000
*    TO A VSE SYSTEM.                                        * @D379DGA 00028000
*                                                            * @D379DGA 00029000
* CALLER:      IPLDISK AND SGSERI SUPERVISOR MACRO           * @D379DGA 00030000
*                                                            * @D379DGA 00031000
*01* CHANGE ACTIVITY = AS FOLLOWS                            * @D379DGA 00032000
*                                                            * @D379DGA 00033000
* CHANGE DESCRIPTIONS                                        * @D379DGA 00034000
* @D61DDGL - NEW MACRO                                       * @D379DGA 00035000
* @DY44680 - INCORRECT MDR RECORD ID FOR D/T3480             * @DY44680 00036000
*                                                            * @D219DEJ 00037000
**** END OF SPECIFICATIONS *********************************** @D379DGA 00038000
.SPECS   AIF   ('&DSECT' EQ 'YES').DSECT   YES DSECT GENERATION         00039000
         AIF   ('&DSECT' EQ 'NO').INLINE   GEN. INLINE CODE    @D36ZDWK 00040000
         MNOTE 1,'INVALID DSECT OPERAND SPECIFIED, NO ASSUMED' @D61DDGL 00041000
.*                                                             @D61DDGL 00042000
.*   GENERATE ACTUAL DEVICE TABLE.                             @D61DDGL 00043000
.*                                                             @D61DDGL 00044000
.INLINE  ANOP                                                  @D61DDGL 00045000
         AIF   (T'&NAME NE 'O').LSTNAM     LABEL GIVEN SKIP    @D61DDGL 00046000
&LABNAM  SETC  'DVCLST'                    SET DEFAULT NAME    @D61DDGL 00047000
         AGO   .LSTNAM1                                        @D61DDGL 00048000
.LSTNAM  ANOP                              USE LABEL           @D61DDGL 00049000
&LABNAM  SETC  '&NAME'                                         @D61DDGL 00050000
.LSTNAM1 ANOP                                                  @D61DDGL 00051000
&LABNAM  DS    0F                          DEVICE LIST         @D61DDGL 00052000
*                                                                       00053000
*    DISK DEVICES  (CKD AND FBA)                                        00054000
*                                                                       00055000
         AGO   .SKIP010                                                 00056000
         SPACE 1                                                        00057000
         DC    X'00'                   INDEX FOR ADDR.TABLE    @D21IDAP 00058000
         AIF   ('&IPL' NE 'YES').NOTR060                       @D61DDGL 00059000
         DC    X'03030705FFFF'         3375                    @D131DGA 00060000
.NOTR060 ANOP                                                  @D65EDUL 00061000
         DC    X'F3F3F7F54040'         3375                    @D131DGA 00062000
         DC    AL1(T3375)              DEV TYP FOR ADDED 3375  @D131DGA 00063000
         DC    AL1(255)                TRACK HOLD INDEX        @D21IDAP 00064000
         DC    AL1(BRSDEV)             CHANNEL SCHEDULER FLAGS @D131DGA 00065000
         DC    X'FC'                   JCL FLAG (RPS)          @D21IDAP 00066000
         DC    AL1(32)                 BYTES ALLOCATED ACT=24  @D21IDAP 00067000
         DC    AL1(PBXDASD)            DASD DEVICE             @D14BDGA 00068000
         DC    X'200C'                 OBR RECORD ID (OS TYPE) @D21IDAP 00069000
         DC    X'18'                   MDR RECORD ID           @D21IDAP 00070000
         DC    AL2(P23350E-PUB2ADR)    LENGTH OF 3375 PUB2     @D21LDAP 00071000
         DC    CL2'AJ'                 ERP PHASE FOR 3375      @D21LDAP 00072000
.SKIP010 ANOP                                                           00073000
         SPACE 1                                                        00074000
         DC    X'00'                   INDEX FOR ADDR.TABLE    @D21IDAP 00075000
         AIF   ('&IPL' NE 'YES').NOTR070                       @D61DDGL 00076000
         DC    X'03030800FFFF'         3380                    @D14ADGA 00077000
.NOTR070 ANOP                                                  @D65EDUL 00078000
         DC    CL6'3380'               3380                    @D14ADGA 00079490
         DC    AL1(T3380)              DEV TYP FOR ADDED 3380  @D131DGA 00080000
         DC    AL1(255)                TRACK HOLD INDEX        @D21IDAP 00081000
         DC    AL1(BRSDEV)             CHANNEL SCHEDULER FLAGS @D131DGA 00082000
         DC    X'FC'                   JCL FLAG (RPS)          @D21IDAP 00083000
         DC    AL1(32)                 BYTES ALLOCATED         @D21IDAP 00084000
         DC    AL1(PBXDASD)            DASD DEVICE             @D14BDGA 00085000
         DC    X'200E'                 OBR RECORD ID (OS TYPE) @D21IDAP 00086000
         DC    X'14'                   MDR RECORD ID           @D21IDAP 00087000
         DC    AL2(P23350E-PUB2ADR)    LENGTH OF 3380 PUB2     @D21LDAP 00088000
         DC    CL2'AJ'                 ERP PHASE FOR 3380      @D21LDAP 00089000
         SPACE 1                                                        00090000
         DC    X'00'                   INDEX FOR ADDR.TABLE    @D51EDAP 00091000
         AIF   ('&IPL' NE 'YES').NOTR080                       @D61DDGL 00092000
         DC    X'0E0C140DFFFF'         ECKD                    @D51EDAP 00093000
.NOTR080 ANOP                                                  @D65EDUL 00094000
         DC    CL6'ECKD'               ECKD                    @D51EDAP 00095490
         DC    AL1(TECKD)              DEV TYP FOR ECKD        @D51EDAP 00096000
         DC    AL1(255)                TRACK HOLD INDEX        @D51EDAP 00097000
         DC    AL1(BRSDEV)             CHANNEL SCHEDULER FLAGS @D51EDAP 00098000
         DC    X'FC'                   JCL FLAG (RPS)          @D51EDAP 00099000
         DC    AL1(32)                 BYTES ALLOCATED         @D51EDAP 00100000
         DC    AL1(PBXDASD)            DASD DEVICE             @D51EDAP 00101000
         DC    X'2000'                 OBR RECORD ID (OS TYPE) @D51EDAP 00102000
         DC    X'00'                   MDR RECORD ID           @D51EDAP 00103000
         DC    AL2(P23350E-PUB2ADR)    LENGTH OF 3380 PUB2     @D51EDAP 00104000
         DC    CL2'AJ'                 ERP PHASE FOR 3380      @D51EDAP 00105000
         SPACE 1                                                        00106000
         DC    X'00'                   INDEX FOR ADDR.TABLE    @D311DAP 00106050
         AIF   ('&IPL' NE 'YES').NOTR085                       @D311DAP 00106100
         DC    X'0F0A1D0DFFFF'         FATD                    @D311DAP 00106150
.NOTR085 ANOP                                                  @D311DAP 00106200
         DC    CL6'FATD'               FATD                    @D311DAP 00106250
         DC    AL1(TECKD)              SPECIAL DEVICE TYPE     @D311DAP 00106300
         DC    AL1(255)                TRACK HOLD INDEX        @D311DAP 00106350
         DC    AL1(BRSDEV)             CHANNEL SCHEDULER FLAGS @D311DAP 00106400
         DC    X'FC'                   JCL FLAG (RPS)          @D311DAP 00106450
         DC    AL1(32)                 BYTES ALLOCATED ACT=32  @D311DAP 00106500
         DC    AL1(PBXDASD)            DASD DEVICE             @D311DAP 00106550
         DC    X'2000'                 OBR RECORD ID (OS TYPE) @D311DAP 00106600
         DC    X'00'                   MDR RECORD ID           @D311DAP 00106650
         DC    AL2(P23350E-PUB2ADR)    LENGTH OF 3375 PUB2     @D311DAP 00106700
         DC    CL2'AJ'                 ERP PHASE FOR 3375      @D311DAP 00106750
         SPACE 1                                               @D311DAP 00106800
         DC    X'00'                   INDEX FOR ADDR.TABLE    @D52HDUL 00107000
         AIF   ('&IPL' NE 'YES').NOTR090                       @D61DDGL 00108000
         DC    X'0F0B0AFFFFFF'         FBA DEVICE              @D52GHUL 00109490
.NOTR090 ANOP                                                  @D65EDUL 00110000
         DC    CL6'FBA'                FBA DEVICE              @D21KDAP 00111490
         DC    AL1(TFBA)               DEV TYP FOR ADDED FBA   @D35EDHH 00112000
         DC    AL1(255)                BLOCK HOLD INDEX        @D21IDAP 00113000
         DC    AL1(BRSDEV)             CHANNEL SCHEDULER FLAGS @D35EDHH 00114000
         DC    X'F8'                   JCL FLAG BITS           @D21IDAP 00115000
         DC    AL1(32)                 BYTES ALLOCATED ACT=24  @D21IDAP 00116000
         DC    AL1(PBXDASD)            DASD DEVICE             @D14BDGA 00117000
         DC    X'2101'                 OBR RECORD ID (OS TYPE) @D21IDAP 00118000
         DC    X'16'                   MDR RECORD ID           @D21IDAP 00119000
         DC    AL2(P2FBAE-PUB2ADR)     LENGTH OF FBA PUB2      @D21LDAP 00120000
         DC    CL2'AJ'                 ERP PHASE FOR FBA       @D21LDAP 00121000
         SPACE 1                                                        00122000
         DC    AL1((ADRTFBAV-ADDRTAB)/2) INDEX FOR ADDRESS TAB @D52HDUL 00123000
         AIF   ('&IPL' NE 'YES').NOTR0A0                       @D61DDGL 00124000
         DC    X'0F0B0A1FFFFF'         VIRTUAL DISK: 'FBAV'    @D52HDUL 00125000
.NOTR0A0 ANOP                                                  @D65EDUL 00126000
         DC    CL6'FBAV'               VIRTUAL DISK: 'FBAV'    @D52HDUL 00127490
         DC    AL1(TFBA)               DEV TYP FOR ADDED FBA   @D35EDHH 00128000
         DC    CL1'V'                  'V' FOR VIRTUAL DISK    @D52HDUL 00129000
         DC    AL1(BRSDEV)             CHANNEL SCHEDULER FLAGS @D35EDHH 00130000
         DC    X'00'                   JCL FLAG BITS - DVCDN   @DA42963 00131000
         DC    AL1(32)                 BYTES ALLOCATED ACT=24  @D21IDAP 00132000
         DC    AL1(PBXDASD+PBXFBAVD)   DASD DEVICE FBAV        @D52VDAP 00133000
         DC    X'2101'                 OBR RECORD ID (OS TYPE) @D21IDAP 00134000
         DC    X'16'                   MDR RECORD ID           @D21IDAP 00135000
         DC    AL2(P2FBAE-PUB2ADR)     LENGTH OF FBA PUB2      @D21LDAP 00136000
         DC    CL2'AJ'                 ERP PHASE FOR FBA       @D21LDAP 00137000
         SPACE 1                                                        00138000
RESEND   DS    0C                      END OF RES DVCS                  00139000
*                                                                       00140000
*    TAPE DEVICES                                                       00141000
*                                                                       00142000
         AGO   .SKIPT20                                        @D52VDUL 00143490
         SPACE 1                                                        00144000
         DC    X'00'                   INDEX FOR ADDR.TABLE    @D21IDAP 00145000
         AIF   ('&IPL' NE 'YES').NOTR0B0                       @D61DDGL 00146000
         DC    X'030401001D09'         3410 TAPE               @D14ZDGA 00147000
.NOTR0B0 ANOP                                                  @D65EDUL 00148000
         DC    X'F3F4F1F0E3F9'         3410 TAPE               @D14ZDGA 00149000
         DC    AL1(T3410T9)            DVC TYPE CODE           @D14ZDGA 00150000
         DC    X'C3'                   DEVICE MODE             @D21IDAP 00151000
         DC    AL1(BRSDEV)             3410T9 CH SCD FLAGS     @D14ZDGA 00152000
         DC    X'C0'                   JCL FLAG BITS           @D21IDAP 00153000
         DC    AL1(9)                  LENGTH OF SENSE INFORM  @D14ZDGA 00154000
         DC    AL1(PBXTAPE)            TAPE DEVICE             @D14BDGA 00155000
         DC    X'8005'                 OBR RECORD ID (OS TYPE) @D51GDAP 00156000
         DC    X'00'                   MDR RECORD ID           @D21IDAP 00157000
         DC    AL2(P23420E-PUB2ADR)    LENGTH OF 3410 PUB2     @D21LDAP 00158000
         DC    CL2'AB'                 ERP PHASE FOR 3410      @D21LDAP 00159000
         SPACE 1                                                        00160000
         DC    X'00'                   INDEX FOR ADDR.TABLE    @D21IDAP 00161000
         AIF   ('&IPL' NE 'YES').NOTR0C0                       @D61DDGL 00162000
         DC    X'030401001D07'         3410 TAPE 7 TRACK       @D14ZDGA 00163000
.NOTR0C0 ANOP                                                  @D65EDUL 00164000
         DC    X'F3F4F1F0E3F7'         3410 TAPE 7 TRACK       @D14ZDGA 00165000
         DC    AL1(T3410T7)            DVC TYPE CODE           @D14ZDGA 00166000
         DC    X'93'                   DEVICE MODE             @D21IDAP 00167000
         DC    AL1(BRSDEV+SVNTRK)      3410T7 CH SCD FLAGS     @D14ZDGA 00168000
         DC    X'90'                   JCL FLAG BITS           @D21IDAP 00169000
         DC    AL1(9)                  LENGTH OF SENSE INFORM  @D14ZDGA 00170000
         DC    AL1(PBXTAPE)            TAPE DEVICE             @D14BDGA 00171000
         DC    X'8005'                 OBR RECORD ID (OS TYPE) @D51GDAP 00172000
         DC    X'00'                   MDR RECORD ID           @D21IDAP 00173000
         DC    AL2(P23420E-PUB2ADR)    LENGTH OF 3420 PUB2     @D21LDAP 00174000
         DC    CL2'AB'                 ERP PHASE FOR 3420      @D21LDAP 00175000
.SKIPT20 ANOP                                                  @D52VDUL 00176490
         SPACE 1                                                        00177000
         DC    X'00'                   INDEX FOR ADDR.TABLE    @D21IDAP 00178000
         AIF   ('&IPL' NE 'YES').NOTR0D0                       @D61DDGL 00179000
         DC    X'030402001D09'         3420-T9 TAPE            @D14ZDGA 00180000
.NOTR0D0 ANOP                                                  @D65EDUL 00181000
         DC    X'F3F4F2F0E3F9'         3420-T9 TAPE            @D14ZDGA 00182000
         DC    AL1(T3420T9)            DVC TYPE CODE           @D14ZDGA 00183000
         DC    X'D3'                   DEVICE MODE             @D21IDAP 00184000
         DC    AL1(BRSDEV)             3420T9 CH SCD FLAGS     @D14ZDGA 00185000
         DC    X'D0'                   JCL FLAG BITS           @D21IDAP 00186000
         DC    AL1(24)                 LENGTH OF SENSE INFORM  @D14ZDGA 00187000
         DC    AL1(PBXTAPE)            TAPE DEVICE             @D14BDGA 00188000
         DC    X'8004'                 OBR RECORD ID (OS TYPE) @D51GDAP 00189000
         DC    X'00'                   MDR RECORD ID           @D21IDAP 00190000
         DC    AL2(P23420E-PUB2ADR)    LENGTH OF 3420 PUB2     @D21LDAP 00191000
         DC    CL2'AB'                 ERP PHASE FOR 3420      @D21LDAP 00192000
         SPACE 1                                                        00193000
         DC    X'00'                   INDEX FOR ADDR.TABLE    @D21IDAP 00194000
         AIF   ('&IPL' NE 'YES').NOTR0E0                       @D61DDGL 00195000
         DC    X'030402001D07'         3420-T7 TAPE            @D14ZDGA 00196000
.NOTR0E0 ANOP                                                  @D65EDUL 00197000
         DC    X'F3F4F2F0E3F7'         3420-T7 TAPE            @D14ZDGA 00198000
         DC    AL1(T3420T7)            DVC TYPE CODE           @D14ZDGA 00199000
         DC    X'93'                   DEVICE MODE             @D21IDAP 00200000
         DC    AL1(BRSDEV+SVNTRK)      3420T7 CH SCD FLAGS     @D14ZDGA 00201000
         DC    X'90'                   JCL FLAG BITS           @D21IDAP 00202000
         DC    AL1(24)                 LENGTH OF SENSE INFORM  @D14ZDGA 00203000
         DC    AL1(PBXTAPE)            TAPE DEVICE             @D14BDGA 00204000
         DC    X'8004'                 OBR RECORD ID (OS TYPE) @D51GDAP 00205000
         DC    X'00'                   MDR RECORD ID           @D21IDAP 00206000
         DC    AL2(P23420E-PUB2ADR)    LENGTH OF 3420 PUB2     @D21LDAP 00207000
         DC    CL2'AB'                 ERP PHASE FOR 3420      @D21LDAP 00208000
         SPACE 1                                                        00209000
         AGO   .SKIPT40                                        @DAOM085 00210490
         DC    X'00'                   INDEX FOR ADDR.TABLE    @D21IDRP 00211000
         AIF   ('&IPL' NE 'YES').NOTR0F0                       @D61DDGL 00212000
         DC    X'03040202FFFF'         3422 TAPE 9 TRACK       @D21IDRP 00213000
.NOTR0F0 ANOP                                                  @D65EDUL 00214000
         DC    X'F3F4F2F24040'         3422 TAPE 9 TRACK       @D21IDRP 00215000
         DC    AL1(T3430)              DVC TYPE CODE           @D21IDRP 00216000
         DC    X'D3'                   DEVICE MODE             @D21IDRP 00217000
         DC    AL1(BRSDEV)             3422 CH SCD FLAGS       @D21IDRP 00218000
         DC    X'D0'                   JCL FLAG BITS           @D21IDRP 00219000
         DC    AL1(9)                  LENGTH OF SENSE INFORM  @D21IDRP 00220000
         DC    AL1(PBXTAPE)            TAPE DEVICE             @D21IDRP 00221000
         DC    X'800A'                 OBR RECORD ID (OS TYPE) @D21IDRP 00222000
         DC    X'00'                   MDR RECORD ID           @D21IDRP 00223000
         DC    AL2(P23420E-PUB2ADR)    LENGTH OF 3422 PUB2     @D21LDAP 00224000
         DC    CL2'AB'                 ERP PHASE FOR 3422      @D21LDAP 00225000
         SPACE 1                                                        00226000
         DC    X'00'                   INDEX FOR ADDR.TABLE    @D21LDAP 00227000
         AIF   ('&IPL' NE 'YES').NOTR170                       @D61DDGL 00228000
         DC    X'03040204FFFF'         3424 DEVICE NAME        @D21LDAP 00229000
.NOTR170 ANOP                                                  @D65EDUL 00230000
         DC    X'F3F4F2F44040'         3424 DEVICE NAME        @D21LDAP 00231000
         DC    AL1(T3480)              PUB DVC TYPE FOR 3424   @D21LDAP 00232000
         DC    X'00'                   DEVICE MODE             @D21LDAP 00233000
         DC    AL1(BRSDEV)             CH SCD FLAGS FOR 3424   @D21LDAP 00234000
         DC    X'C0'                   JCL FLAG BITS           @D21LDAP 00235000
         DC    AL1(32)                 LENGTH OF SENSE DATA    @D21LDAP 00236000
         DC    AL1(PBXTAPE)            TAPE DEVICE             @D21LDAP 00237000
         DC    X'800C'                 OBR RECORD ID (OS TYPE) @D21LDAP 00238000
         DC    X'44'                   MDR RECORD ID           @D21LDAP 00239000
         DC    AL2(P23480E-PUB2ADR)    LENGTH OF 3424 PUB2     @D21LDAP 00240000
         DC    CL2'AU'                 ERP PHASE FOR 3424      @D21LDAP 00241000
         SPACE 1                                                        00242000
.SKIPT40 ANOP                                                  @DAOM085 00242500
         DC    X'00'                   INDEX FOR ADDR.TABLE    @D21IDAP 00243000
         AIF   ('&IPL' NE 'YES').NOTR100                       @D61DDGL 00244000
         DC    X'03040300FFFF'         3430 TAPE 9 TRACK       @D14ADGA 00245000
.NOTR100 ANOP                                                  @D65EDUL 00246000
         DC    X'F3F4F3F04040'         3430 TAPE 9 TRACK       @D14ADGA 00247000
         DC    AL1(T3430)              DVC TYPE CODE           @D14ADGA 00248000
         DC    X'D3'                   DEVICE MODE             @D21IDAP 00249000
         DC    AL1(BRSDEV)             3430 CH SCD FLAGS       @D14ADGA 00250000
         DC    X'D0'                   JCL FLAG BITS           @D21IDAP 00251000
         DC    AL1(9)                  LENGTH OF SENSE INFORM  @D14ADGA 00252000
         DC    AL1(PBXTAPE)            TAPE DEVICE             @D14BDGA 00253000
         DC    X'8007'                 OBR RECORD ID (OS TYPE) @D21IDAP 00254000
         DC    X'00'                   MDR RECORD ID           @D21IDAP 00255000
         DC    AL2(P23420E-PUB2ADR)    LENGTH OF 3430 PUB2     @D21LDAP 00256000
         DC    CL2'AB'                 ERP PHASE FOR 3430      @D21LDAP 00257000
         SPACE 1                                                        00258000
         AGO   .SKIPT60                                        @D52VDUL 00259490
         DC    X'00'                   INDEX FOR ADDR.TABLE    @D21IDAP 00260000
         AIF   ('&IPL' NE 'YES').NOTR110                       @D61DDGL 00261000
         DC    X'08080009FFFF'         8809 TAPE 9 TRACK       @D35ZDGA 00262000
.NOTR110 ANOP                                                  @D65EDUL 00263000
         DC    X'F8F8F0F94040'         8809 TAPE 9 TRACK       @D35ZDGA 00264000
         DC    AL1(T8809)              DVC TYPE CODE           @D35ZDGA 00265000
         DC    X'63'                   DEVICE MODE             @D21IDAP 00266000
         DC    AL1(BRSDEV)             9347 CH SCD FLAGS       @DY44680 00267000
         DC    X'60'                   JCL FLAG BITS           @D21IDAP 00268000
         DC    AL1(32)                 LENGTH OF SENSE INFORM  @D37BDGA 00269000
         DC    AL1(PBXTAPE)            TAPE DEVICE             @D14BDGA 00270000
         DC    X'8006'                 OBR RECORD ID (OS TYPE) @D21IDAP 00271000
         DC    X'40'                   MDR RECORD ID           @D21IDAP 00272000
         DC    AL2(P23420E-PUB2ADR)    LENGTH OF 8809 PUB2     @D21LDAP 00273000
         DC    CL2'AJ'                 ERP PHASE FOR 8809      @D21LDAP 00274000
         SPACE 1                                                        00275000
         DC    X'00'                   INDEX FOR ADDR.TABLE    @D21FDAP 00277000
         AIF   ('&IPL' NE 'YES').NOTR120                       @D61DDGL 00278000
         DC    X'09030406FFFF'         9346 TAPE               @D21FDAP 00279000
.NOTR120 ANOP                                                  @D65EDUL 00280000
         DC    X'F9F3F4F64040'         9346 TAPE               @D21FDAP 00281000
         DC    AL1(T9346)              DVC TYPE CODE           @D21FDAP 00282000
         DC    X'00'                   DEVICE MODE             @D21FDAP 00283000
         DC    AL1(BRSDEV)             9346 CH SCD FLAGS       @D21FDAP 00284000
         DC    X'C0'                   JCL FLAG BITS           @D21FDAP 00285000
         DC    AL1(32)                 LENGTH OF SENSE INFORM  @D21FDAP 00286000
         DC    AL1(PBXTAPE)            TAPE DEVICE             @D21FDAP 00287000
         DC    X'804F'                 OBR RECORD ID (OS TYPE) @D51IDAP 00288000
         DC    X'4F'                   MDR RECORD ID           @D51IDAP 00289000
         DC    AL2(P23420E-PUB2ADR)    LENGTH OF 9346 PUB2     @D21FDAP 00290000
         DC    CL2'AJ'                 ERP PHASE FOR 9346      @D21FDAP 00291000
         SPACE 1                                                        00292000
         DC    X'00'                   INDEX FOR ADDR.TABLE    @D21JDAP 00293000
         AIF   ('&IPL' NE 'YES').NOTR130                       @D61DDGL 00294000
         DC    X'09030407FFFF'         9347 TAPE               @D21JDAP 00295000
.NOTR130 ANOP                                                  @D65EDUL 00296000
         DC    X'F9F3F4F74040'         9347 TAPE               @D21JDAP 00297000
         DC    AL1(T9347)              DVC TYPE CODE           @D21JDAP 00298000
         DC    X'63'                   DEVICE MODE             @D21JDAP 00299000
         DC    AL1(BRSDEV)             8809 CH SCD FLAGS       @D21JDAP 00300000
         DC    X'60'                   JCL FLAG BITS           @D21JDAP 00301000
         DC    AL1(32)                 LENGTH OF SENSE INFORM  @D21JDAP 00302000
         DC    AL1(PBXTAPE)            TAPE DEVICE             @D21JDAP 00303000
         DC    X'8009'                 OBR RECORD ID (OS TYPE) @D21JDAP 00304000
         DC    X'1F'                   MDR RECORD ID           @D21JDAP 00305000
         DC    AL2(P23420E-PUB2ADR)    LENGTH OF 9347 PUB2     @D21LDAP 00306000
         DC    CL2'AB'                 ERP PHASE FOR 9347      @D21LDAP 00307000
         SPACE 1                                                        00308000
         DC    X'00'                   INDEX FOR ADDR.TABLE    @D31KMAP 00309000
         AIF   ('&IPL' NE 'YES').NOTR180                       @D61DDGL 00310000
         DC    X'09030408FFFF'         9348 DEVICE NAME        @D31KMAP 00311000
.NOTR180 ANOP                                                  @D65EDUL 00312000
         DC    X'F9F3F4F84040'         9348 DEVICE NAME        @D31KMAP 00313000
         DC    AL1(T3480)              PUB DVC TYPE FOR 9348   @D31KMAP 00314000
         DC    X'00'                   DEVICE MODE             @D31KMAP 00315000
         DC    AL1(BRSDEV)             CH SCD FLAGS FOR 9348   @D31KMAP 00316000
         DC    X'C0'                   JCL FLAG BITS           @D31KMAP 00317000
         DC    AL1(32)                 LENGTH OF SENSE DATA    @D31KMAP 00318000
         DC    AL1(PBXTAPE)            TAPE DEVICE             @D31KMAP 00319000
         DC    X'800E'                 OBR RECORD ID (OS TYPE) @D31KMAP 00320000
         DC    X'45'                   MDR RECORD ID           @D31KMAP 00321000
         DC    AL2(P23480E-PUB2ADR)    LENGTH OF 9348 PUB2     @D31KMAP 00322000
         DC    CL2'AU'                 ERP PHASE FOR 9348      @D31KMAP 00323000
.SKIPT60 ANOP                                                           00324490
         SPACE 1                                                        00325000
         DC    X'00'                   INDEX FOR ADDR.TABLE    @D21IDAP 00326000
         AIF   ('&IPL' NE 'YES').NOTR140                       @D61DDGL 00327000
         DC    X'03040800FFFF'         3480 DEVICE NAME        @D21CDEJ 00328000
.NOTR140 ANOP                                                  @D64EDUL 00329000
         DC    X'F3F4F8F04040'         3480 DEVICE NAME        @D21CDEJ 00330000
         DC    AL1(T3480)              PUB DVC TYPE FOR 3480   @D21CDEJ 00331000
         DC    X'00'                   DEVICE MODE             @D21IDAP 00332000
         DC    AL1(BRSDEV)             CH SCD FLAGS FOR 3480   @D21CDEJ 00333000
         DC    X'C0'                   JCL FLAG BITS           @D21IDAP 00334000
         DC    AL1(32)                 LENGTH OF SENSE DATA    @D21CDEJ 00335000
         DC    AL1(PBXTAPE)            TAPE DEVICE             @D21CDEJ 00336000
         DC    X'8080'                 OBR RECORD ID (OS TYPE) @D21IDAP 00337000
         DC    X'41'                   MDR RECORD ID           @DY44680 00338000
         DC    AL2(P23480E-PUB2ADR)    LENGTH OF 3480 PUB2     @D21LDAP 00339000
         DC    CL2'AU'                 ERP PHASE FOR 3480      @D21LDAP 00340000
         SPACE 1                                                        00341000
         DC    X'00'                   INDEX FOR ADDR. TABLE   @D51TDAP 00342000
         AIF   ('&IPL' NE 'YES').NOTR150                       @D61DDGL 00343000
         DC    X'03040900FFFF'         3490 DEVICE NAME        @D51TDAP 00344000
.NOTR150 ANOP                                                  @D65EDUL 00345000
         DC    X'F3F4F9F04040'         3490 DEVICE NAME        @D51TDAP 00346000
         DC    AL1(T3480)              PUB DVC TYPE FOR 3490   @D51TDAP 00347000
         DC    X'00'                   DEVICE MODE             @D51TDAP 00348000
         DC    AL1(BRSDEV)             CH SCD FLAGS FOR 3490   @D51TDAP 00349000
         DC    X'C0'                   JCL FLAG BITS           @D51TDAP 00350000
         DC    AL1(32)                 LENGTH OF SENSE DATA    @D51TDAP 00351000
         DC    AL1(PBXTAPE)            TAPE DEVICE             @D51TDAP 00352000
         DC    X'8081'                 OBR RECORD ID (OS TYPE) @D62TAAP 00353000