         MACRO                                                          00001000
&NAME    CASORT  &PHASE=, NAME FOR CA-SORT                             -00002000
               &MODEL=,   CPU MODEL CODE (30/....)                     -00003000
               &OPT=,     OPTIMIZATION DEFAULT (E/D)                   -00004000
               &MSG=,     (LST/LOG/BOTH)                               -00005000
               &DYNAMD=,  CA-DYNAMD INTERFACE (NO/YES)                 -00006000
               &DYNAMFI=, CA-DYNAMFI INTERFACE (NO/50/42)              -00007000
               &DYNALOC=, DYNAMIC SORTWK ALLOCATION (NO/VOLSER,N) NEW  -00008000
               &RC=,      SET RETURN CODE AT EOJ VSE/SP (NO/YES)  NEW  -00009000
               &PFIX=,    PAGE FIXING (YES/NO)                         -00010000
               &OPSYS=,   OPERATING SYSTEM (VSE/VSE/DOSMVT)            -00011000
               &DEFDTF=,  DEFAULT DTF TYPES FOR SORTIN/SORTOUT         -00012000
               &PREOPEN=, PRE-OPEN OF SORTIN FILES                     -00013000
               &DISK=,    ELIGIBLE SORTWK DISK DEVICES                 -00014000
               &VCM=,     VCMA ALGORITHYM DETERMINATION                -00015000
               &EQUALS=,  EQUALS (YES/NO)                              -00016000
               &STORAGE=, MAX STORAGE FOR CA-SORT TO USE (NNNNK)       -00017000
               &RESERVE=, MIN GETVIS AREA RESERVED (NNNNK)      V73N001-00018000
               &CHECK=,   RECORD COUNT CHECKING WITH E35 EXITS         -00019000
               &WKASN=,   WKASN DEFAULT (ON/OFF) DEFAULT OFF           -00020000
               &WKXTNTS=, MAX WORKFILE EXTENTS - DEFAULT 25            -00020500
               &SPECIAL=, LIST OF SPECIAL PTFS TO BE APPLIED   V73N016 -00021000
               &JCLPRNT=,  PRINT FOR JCL INITIATED SORTS       V73N016 -00022000
               &INVPRNT=,  PRINT FOR PROGRAM INVOKED SORTS     V73N016 -00023000
               &INVCNCL=, CANCEL ON ERROR FOR INVOKED SORTS?   V73N016 -00024000
               &CHALT=,   INTERPRET 'CH' AS 'AQ'               V73N023 -00025000
               &ALTSEQ=,  ALTERNATE SEQUENCE TABLE             V73N023 -00026000
               &Y2PAST=,   SLIDING CENTURY WINDOW 80 YEARS             -00026500
               &DSPSIZE=, DATA SPACE SIZE                              -00026600
               &GVSIZE=,  GVSIZE                                       -00026700
               &GVRLOW=,  GVRLOW                                       -00026800
               &GVRANY=,  GVRANY                                       -00026900
               &EXPAND=                                                 00027000
.* ===========================================================          00028000
.*                                                                      00029000
.* IF YOU CHANGE THIS MACRO, PLEASE LOOK FOR CHANGES IN                 00030000
.* PPACELLS AND IN CASMCHEK.                                            00031000
.*                                                                      00032000
.* ===========================================================          00033000
.*                                                                      00034000
.* CA-SORT INSTALLATION TAILORING MACRO.                                00035000
.* COPYRIGHT (C) 1986                                          V72N400  00036000
.* BY COMPUTER ASSOCIATES INTERNATIONAL, INC.                           00037000
.* THIS MACRO ALLOWS THE CA-SORT USER TO GENERATE A CA-SORT ROOT PHASE  00038000
.* WITH USER-SPECIFIED DEFAULT OPTIONS.                                 00039000
.*                                                                      00040000
.* SAMPLE GENERATION-                                                   00041000
.*       // JOB CASORT GENERATION                                       00042000
.*       // OPTION CATAL                                                00043000
.*       // EXEC ASSEMBLY                                               00044000
.*             CASORT  PHASE=SORT,  PHASENAME IS SORT                 - 00045000
.*                   MODEL=148,     MODEL IS 148                      - 00046000
.*                   MSG=BOTH,      ROUTE MESSAGES TO SYSLOG AND LST  - 00047000
.*                   DYNAMD=YES,    CA-DYNAM/D IS INSTALLED ON SYSTEM - 00048000
.*                   OPSYS=VSE      DOS/VSE OPERATING SYSTEM   V72N499  00049000
.*             END   ,                                                  00050000
.*       /*                                                             00051000
.*       // EXEC LNKEDT                                                 00052000
.*       /&                                                             00053000
.*                                                                      00054000
.* NOTE- OWING TO THE ELISION OF SOME SYMBOLIC PARAMETERS, REDUNDANT    00055000
.* CODE MAY BE FOUND IN THE FOLLOWING MACRO DEFINITION.                 00056000
.*                                                                      00057000
.* DEFINE LCLCS FOR VERSION AND MOD LEVEL ETC ETC                       00058000
         LCLC  &VER,&MOD     VERSION AND MOD. LEVEL                     00059000
         LCLC  &VM            VERSION.MOD (3 CHARS ONLY E.G. 5.4)       00060000
         LCLC  &Q            VER AND MOD E.G.54                         00061000
         LCLC  &ID           CSECT IDENTIFICATION                       00062000
         LCLC  &FICSECT      CSECT NAME                                 00063000
.* DEFINE LCLCS TO BE SET TO FINAL GENERATION PARAMETERS                00064000
         LCLC  &PHASEP,&MODELP,&OPTP,&MSGP,&JCLPP,&INVPP       V73N017  00065000
         LCLC  &DYNAMDP,&PFIXP,&OPSYSP,&STORAGP,&RCP           V72SPRC  00066000
         LCLC  &RESERVP                                        V73N001  00067000
         LCLC  &SPEC                                           V73N016  00068000
         LCLC  &INVCNP                                         V73N017  00069000
         LCLA  &SP,&SPTF,&AA,&AB,&AC                           V73N023  00070000
         LCLB  &SPECR,&CHALTR,&CHALN,&ALTSN,&ALTR              V73N023  00071000
         LCLB  &INVCNR,&JCLPCTL,&JCLPNON,&INVPALL,&INVPNON     V73N017  00072000
         LCLC  &DEFDTFP,&DISKP,&VCMP,&EQUALSP,&CA,&Y2          V82M002  00073490
         LCLC  &PREOPP,&CHECKP,&EXPP,&CHALTP                   V73N023  00074000
         LCLC  &SMCLT        MVC TIME  * TIMINGS DERIVED                00075000
         LCLC  &SBYTM        BYT       * FROM                           00076000
         LCLC  &SLSTM        L/S       * MODEL                          00077000
         LCLC  &CPU          CPU MODEL E.G. 30 40 50 125 158            00078000
         LCLC  &VSTORE       NNNN OF STORAGE=NNNNK                      00079000
         LCLC  &VRESER       NNNN OF RESERVE=NNNNK             V73N001  00080000
.* DEFINE LCLA  USED TO GENERATE DEFAULT DTF TYPE                       00081000
         LCLA  &DTFTYP            SORTIN/SORTOUT DEFAULT DTF TYPE       00082000
         LCLA  &PREOPA            PRE-OPEN SWITCH                       00083000
         LCLA  &INVCNA            CANCEL INVOKED SORT SWITCH   V73N017  00084000
.* DEFILE LCLS FOR WKASN PARAMETER                             V70N261  00085000
         LCLC  &WKASNP            PARAMETER IN EFFECT          V70N261  00086000
         LCLB  &WKASNB            BIT SWTICH IN PPA            V70N261  00087000
.* DEFINE LCLS USED IN DISK SORTWK DEVICE GENERATION                    00088000
         LCLA  &DISKA                                                   00089000
         LCLA  &DISKA1                                                  00090000
         LCLA  &DISKA2                                                  00091000
         LCLB  &DISKB(11)                                               00092000
         LCLC  &DISKC(10)                                               00093000
.* DEFINE LCLS  USED IN CHECKING &STORAGE AND &RESERVE          V73N001 00094000
         LCLC  &D1           DIGITS 01234                               00095000
         LCLC  &D2           DIGITS 56789                               00096000
         LCLA  &D            INDEX THRU STRINGS OF VALID DECIMAL DIGITS 00097000
         LCLA  &C            INDEX THRU NNNN OF NNNNK                   00098000
         LCLA  &STORAGA       NNNN OF NNNNK IN CROSS-CHECKING           00099000
         LCLA  &RESERVA       NNNN OF NNNNK IN CROSS-CHECKING   V73N001 00100000
.* DEFINE LCLBS SET TO INDICATE AN ERROR IN A PARAMETER                 00101000
         LCLB  &MODELR,&OPTR,&MSGR,&JCLPR,&INVPR               V73N017  00102000
         LCLB  &DYNAMDR,&PFIXR,&OPSYSR,&STORAGR,&RCR           V72SPRC  00103000
         LCLB  &RESERVR                                        V73N001  00104000
         LCLB  &DEFDTFR,&DISKR,&EQUALSR,&WKASNPR               V70N261  00105000
         LCLB  &PREOPR,&VCMR,&CHECKR                                    00106000
         LCLB  &CAT          SET 1 FOR A CATASTROPHIC ERROR             00107000
.* DEFINE LCLBS CORRESPONDING TO BIT SWITCHES                           00108000
         LCLB  &S70          S/370                                      00109000
         LCLB  &RMP          RUN MESSAGES TO SYSLST                     00110000
         LCLB  &RML          RUN MESSAGES TO SYSLOG                     00111000
         LCLB  &OPD          ELAPSED TIME OPTIMISATION (OPT=D)          00112000
         LCLB  &MVT          DOS/MVT SYSTEM                             00113000
         LCLB  &CHKEQNO      CHECK=NO                                   00114000
         LCLB  &PFX          PAGE FIXING                                00115000
         LCLB  &DYN          DYNAM/D INTERFACE ACTIVE                   00116000
         LCLB  &SPRC         RC=YES                            V72SPRC  00117000
         LCLB  &INVCN        CANCEL ON ERROR FOR INVOKED SORTS V73N017  00118000
.* DEFINE LOCALS FOR VCM PARAMATER                                      00119000
         LCLB  &VCMNA                                                   00120000
         LCLB  &VCMLIMT                                                 00121000
         LCLB  &EQA                                                     00122000
.* DEFINE OTHER LCLBS CORRESPONDING TO PARAMETERS                       00123000
         LCLB  &M25,&M30,&M40,&M50,&M65                                 00124000
         LCLB  &M115,&M125,&M135,&M138,&M145,&M148,&M155,&M158,&M168    00125000
         LCLB  &M3031,&M3032,&M3033,&M4331,&M4341                       00126000
         LCLB  &M3080,&M3090,&M4361,&M4381,&M9370,&M9000       V73N001  00127000
         LCLB  &PHAB         PUNCH A PHASE STMT                         00128000
.* DEFINE LCLS FOR DYNAMFI PARAMATER                                    00129000
         LCLB  &DFI          DYNAM/FI REL 5.0 SWITCH           V72CDYN  00130000
         LCLB  &DYNFIR       DYNAM/FI ERROR SWITCH                      00131000
         LCLC  &DYNFIP                                                  00132000
.* DEFINE LCLS FOR DYNALOC PARAMATER                           V72N499  00133000
         LCLA  &WKNO                                           V72N499  00134000
         LCLB  &DYNALC,&DYNALCR                                V72N499  00135000
         LCLC  &VOLSER,&DYNALCP                                V72N499  00136000
.* DEFILE LCLS FOR WKXTNTS PARAMETER                           V81M008  00136200
         LCLA  &XTNTS                                          V81M008  00136400
         LCLB  &XTNTR                                          V81M008  00136600
.* SET VARIOUS LCLCS                                                    00137000
         LCLC  &DSP                                            V90M001  00138490
&VER     SETC  '9'           VERSION                           V90M001  00138980
&MOD     SETC  '0'           MODIFICATION LEVEL                V90M001  00139470
&VM      SETC  '&VER..&MOD'(1,3)  V.M                                   00140000
&Q       SETC  '&VER&MOD'(1,2)    VM                                    00141000
.* &Q       SETC  'BT'                                                  00142000
&ID      SETC  'A000'        CSECT ID                                   00143000
&FICSECT SETC 'CA&Q&ID'      CSECT NAME                                 00144000
&EXPP    SETC  'NO'                                                     00145000
.* NOW CHECK THE PARAMETERS                                             00146000
.* CHECK PHASE=                                                         00147000
&PHASEP  SETC  'CA&Q.SORT'   DEFAULT                                    00148000
&PHAB    SETB  1             ALWAYS PUNCH A PHASE STMT         V70N262  00149000
         AIF   (T'&PHASE EQ 'O').PHASEND IF OMITTED TAKE DEFAULT        00150000
&PHASEP  SETC  '&PHASE'                                                 00151000
.PHASEND ANOP  ,                                                        00152000
.* CHECK MODEL=                                                         00153000
&CPU     SETC  '4331'        DEFAULT                                    00154000
&MODELP  SETC  '&CPU'        GENERATION PARAMETER                       00155000
         AIF   (T'&MODEL EQ 'O').MODOK IF OMITTED, TAKE DEFAULT         00156000
.* ALLOW FOR, BUT IGNORE MACHINE SPECIFICATION 'A' OR 'B'               00157000
.*       SET &CPU IF MODEL DEFAULT NOT TAKEN                            00158000
.*             BUT FIRST THE KOUNT MUST BE KORREKT                      00159000
         AIF   (K'&MODEL LT 2 OR  K'&MODEL GT 5).MODERR ERROR           00160000
&MODELP  SETC  '&MODEL'                                                 00161000
&CPU     SETC  '&MODELP'                                                00162000
.* IF 'A' OR 'B' MACHINE SPECIFIED, ALLOW IT, BUT IGNORE 'A' OR 'B'     00163000
         AIF   ('&MODELP'(K'&MODEL,1) EQ 'A').SETCPU                    00164000
         AIF   ('&MODELP'(K'&MODEL,1) EQ 'B').SETCPU                    00165000
         AGO   .MODOK        &CPU ALREADY SET                           00166000
.SETCPU  ANOP  ,             'A' OR 'B' SPECIFIED                       00167000
&CPU     SETC  '&MODELP'(1,(K'&MODEL-1)) CPU MODEL E.G. 30 40 155       00168000
&MODELP  SETC  '&CPU'        GENERATION PARAMETER                       00169000
.MODOK   ANOP  ,                                                        00170000
.*       CHECK CPU                                                      00171000
&M25     SETB  ('&CPU' EQ '25')                                         00172000
&M30     SETB  ('&CPU' EQ '30')                                         00173000
&M40     SETB  ('&CPU' EQ '40')                                         00174000
&M50     SETB  ('&CPU' EQ '50')                                         00175000
&M65     SETB  ('&CPU' EQ '65')                                         00176000
&M115    SETB  ('&CPU' EQ '115')                                        00177000
&M125    SETB  ('&CPU' EQ '125')                                        00178000
&M135    SETB  ('&CPU' EQ '135')                                        00179000
&M138    SETB  ('&CPU' EQ '138')                                        00180000
&M145    SETB  ('&CPU' EQ '145')                                        00181000
&M148    SETB  ('&CPU' EQ '148')                                        00182000
&M155    SETB  ('&CPU' EQ '155')                                        00183000
&M158    SETB  ('&CPU' EQ '158')                                        00184000
&M168    SETB  ('&CPU' EQ '168')                                        00185000
&M3031   SETB  ('&CPU' EQ '3031')                                       00186000
&M3032   SETB  ('&CPU' EQ '3032')                                       00187000
&M3033   SETB  ('&CPU' EQ '3033')                                       00188000
&M3080   SETB  ('&CPU' EQ '3080')                               V73N001 00189000
&M3090   SETB  ('&CPU' EQ '3090')                               V73N001 00190000
&M9000   SETB  ('&CPU' EQ '9000')                               V73N001 00191000
&M4331   SETB  ('&CPU' EQ '4331')                                       00192000
&M4341   SETB  ('&CPU' EQ '4341')                                       00193000
&M4361   SETB  ('&CPU' EQ '4361')                               V73N001 00194000
&M4381   SETB  ('&CPU' EQ '4381')                               V73N001 00195000
&M9370   SETB  ('&CPU' EQ '9370')                               V73N001 00196000
.*                                                                      00197000
.*       SET SPEEDS FOR EACH MODEL                                      00198000
&SMCLT   SETC  '166'                                                    00199000
&SBYTM   SETC  '40'                                                     00200000
&SLSTM   SETC  '255'                                                    00201000
         AIF   (&M25).CHECKA                                            00202000
&SMCLT   SETC  '165'                                            V73N014 00203000
&SBYTM   SETC  '38'                                             V73N014 00204000
&SLSTM   SETC  '253'                                            V73N014 00205000
         AIF   (&M30).CHECKA                                            00206000
&SMCLT   SETC  '64'                                                     00207000
&SBYTM   SETC  '21'                                                     00208000
&SLSTM   SETC  '95'                                                     00209000
         AIF   (&M40).CHECKA                                            00210000
&SMCLT   SETC  '43'                                                     00211000
&SBYTM   SETC  '8'                                                      00212000
&SLSTM   SETC  '32'                                                     00213000
         AIF   (&M50).CHECKA                                            00214000
&SMCLT   SETC  '22'                                                     00215000
&SBYTM   SETC  '6'                                                      00216000
&SLSTM   SETC  '21'                                                     00217000
         AIF   (&M65).CHECKAB                                           00218000
&SMCLT   SETC  '96'                                                     00219000
&SBYTM   SETC  '12'                                                     00220000
&SLSTM   SETC  '92'                                                     00221000
         AIF   (&M115).CHECKA                                           00222000
&SMCLT   SETC  '38'                                                     00223000
&SBYTM   SETC  '12'                                                     00224000
&SLSTM   SETC  '65'                                                     00225000
         AIF   (&M125).CHECKA                                           00226000
&SMCLT   SETC  '26'                                                     00227000
&SBYTM   SETC  '12'                                                     00228000
&SLSTM   SETC  '32'                                                     00229000
         AIF   (&M135).CHECKA                                           00230000
&SMCLT   SETC  '24'                                             V73N014 00231000
&SBYTM   SETC  '11'                                             V73N014 00232000
&SLSTM   SETC  '28'                                             V73N014 00233000
         AIF   (&M138).CHECKA                                           00234000
&SMCLT   SETC  '17'                                                     00235000
&SBYTM   SETC  '9'                                                      00236000
&SLSTM   SETC  '23'                                                     00237000
         AIF   (&M145).CHECKA                                           00238000
&SMCLT   SETC  '15'                                             V73N014 00239000
&SBYTM   SETC  '7'                                              V73N014 00240000
&SLSTM   SETC  '18'                                             V73N014 00241000
         AIF   (&M148).CHECKA                                           00242000
&SMCLT   SETC  '13'                                             V73N014 00243000
&SBYTM   SETC  '5'                                              V73N014 00244000
&SLSTM   SETC  '12'                                             V73N014 00245000
         AIF   (&M4331).CHECKA                                          00246000
&SMCLT   SETC  '8'                                                      00247000
&SBYTM   SETC  '3'                                                      00248000
&SLSTM   SETC  '8'                                                      00249000
         AIF   (&M155).CHECKAB                                          00250000
&SMCLT   SETC  '12'                                             V73N014 00251000
&SBYTM   SETC  '4'                                              V73N014 00252000
&SLSTM   SETC  '10'                                             V73N014 00253000
         AIF   (&M158).CHECKA                                           00254000
&SMCLT   SETC  '11'                                             V73N014 00255000
&SBYTM   SETC  '4'                                              V73N014 00256000
&SLSTM   SETC  '9'                                              V73N014 00257000
         AIF   (&M168).CHECKA                                           00258000
&SMCLT   SETC  '10'                                             V73N014 00259000
&SBYTM   SETC  '3'                                              V73N014 00260000
&SLSTM   SETC  '8'                                              V73N014 00261000
         AIF   (&M3031).CHECKA                                          00262000
&SMCLT   SETC  '9'                                              V73N014 00263000
&SBYTM   SETC  '3'                                              V73N014 00264000
&SLSTM   SETC  '7'                                              V73N014 00265000
         AIF   (&M3032).CHECKA                                          00266000
&SMCLT   SETC  '8'                                              V73N014 00267000
&SBYTM   SETC  '3'                                              V73N014 00268000
&SLSTM   SETC  '7'                                              V73N014 00269000
         AIF   (&M3033).CHECKA                                          00270000
&SMCLT   SETC  '7'                                              V73N014 00271000
&SBYTM   SETC  '3'                                              V73N014 00272000
&SLSTM   SETC  '6'                                              V73N014 00273000
         AIF   (&M4341).CHECKA                                          00274000
&SMCLT   SETC  '6'                                              V73N014 00275000
&SBYTM   SETC  '3'                                              V73N014 00276000
&SLSTM   SETC  '5'                                              V73N014 00277000
         AIF   (&M4361).CHECKA                                          00278000
&SMCLT   SETC  '5'                                              V73N014 00279000
&SBYTM   SETC  '2'                                              V73N014 00280000
&SLSTM   SETC  '5'                                              V73N014 00281000
         AIF   (&M4381).CHECKA                                          00282000
&SMCLT   SETC  '5'                                              V73N014 00283000
&SBYTM   SETC  '2'                                              V73N014 00284000
&SLSTM   SETC  '4'                                              V73N014 00285000
         AIF   (&M9370).CHECKA                                          00286000
&SMCLT   SETC  '4'                                              V73N014 00287000
&SBYTM   SETC  '2'                                              V73N014 00288000
&SLSTM   SETC  '5'                                              V73N014 00289000
         AIF   (&M3080).CHECKA                                          00290000
&SMCLT   SETC  '4'                                              V73N014 00291000
&SBYTM   SETC  '2'                                              V73N014 00292000
&SLSTM   SETC  '4'                                              V73N014 00293000
         AIF   (&M3090).CHECKA                                          00294000
&SMCLT   SETC  '4'                                              V73N014 00295000
&SBYTM   SETC  '2'                                              V73N014 00296000
&SLSTM   SETC  '4'                                              V73N014 00297000
         AIF   (&M9000).CHECKA                                          00298000
         AGO    .MODERR           UNDEFINED MODEL TYPE                  00299000
.CHECKAB ANOP  ,              THIS MACHINE CAN BE 'A' OR 'B'            00300000
.CHECKA  ANOP  ,             THIS MACHINE MUST BE AN 'A'                00301000
.MACHOK  ANOP  ,             &MACH IS OK                                00302000
         AGO   .MODELND      ALL OK                                     00303000
.MODERR  ANOP  ,             MODEL PARAMETER IS IN ERROR                00304000
         MNOTE ' ''MODEL=&MODEL'' IS INVALID. SPECIFY ''25'',''30'',   -00305000
               ''40'',''50'',''65'','                                   00306000
         MNOTE '''115'',''125'',''135'',''138'',''145'',''148'',       -00307000
               ''155'',''158'',''168'',''9000'','                       00308000
         MNOTE '''3031'',''3032'',''3033'',''4331'',''4341'','  V73N001 00309000
         MNOTE '''4361'',''4381'',''3080'',''3090'',''9370''.'  V73N001 00310000
&MODELR  SETB  1             PARAMETER ERROR                            00311000
&CAT     SETB  1             CATASTROPHIC                               00312000
.MODELND ANOP  ,                                                        00313000
.* CHECK OPT=                                                           00314000
&OPTP    SETC  'E'           DEFAULT                                    00315000
         AIF   (T'&OPT EQ 'O').OPTOK IF OMITTED, TAKE DEFAULT           00316000
         AIF   (K'&OPT NE 1).OPTERR                                     00317000
&OPTP    SETC  '&OPT'                                                   00318000
.OPTOK   ANOP  ,                                                        00319000
&OPD     SETB  ('&OPTP' EQ 'D')                                         00320000
         AIF   ('&OPTP' EQ 'D' OR  '&OPTP' EQ 'E').OPTND  INVALID       00321000
.OPTERR  MNOTE ' ''OPT=&OPT'' IS INVALID. SPECIFY ''D'' OR ''E''.'      00322000
&OPTR    SETB  1             PARAMETER ERROR                            00323000
&CAT     SETB  1             CATASTROPHIC                               00324000
.OPTND   ANOP  ,                                                        00325000
.* CHECK MSG=                                                           00326000
&MSGP    SETC  'LST'         DEFAULT                                    00327000
         AIF   (T'&MSG EQ 'O').MSGOK                                    00328000
         AIF   (K'&MSG LT 3 OR K'&MSG GT 4).MSGERR                      00329000
&MSGP    SETC  '&MSG'                                                   00330000
.MSGOK   ANOP  ,                                                        00331000
&RMP     SETB  ('&MSGP' EQ 'LST' OR '&MSGP' EQ 'BOTH')                  00332000
&RML     SETB  ('&MSGP' EQ 'LOG' OR '&MSGP' EQ 'BOTH')                  00333000
         AIF   ('&MSGP' EQ 'LST' OR '&MSGP' EQ 'LOG' OR                -00334000
                '&MSGP' EQ 'BOTH').MSGND                                00335000
.MSGERR  MNOTE ' ''MSG=&MSG'' IS INVALID. SPECIFY ''LST'',''LOG'' OR ''-00336000
               BOTH''.'                                                 00337000
&MSGR    SETB  1             PARAMETER ERROR                            00338000
&CAT     SETB  1             CATASTROPHIC                               00339000
.MSGND   ANOP  ,                                                        00340000
.* CHECK JCLPRNT=                                                       00341000
&JCLPP   SETC  'ALL'         DEFAULT                                    00342000
         AIF   (T'&JCLPRNT EQ 'O').JCLPOK                               00343000
&JCLPP   SETC  '&JCLPRNT'                                               00344000
.JCLPOK  ANOP  ,                                                        00345000
&JCLPCTL SETB  ('&JCLPP' EQ 'CRITICAL')                                 00346000
&JCLPNON SETB  ('&JCLPP' EQ 'NONE')                                     00347000
         AIF   ('&JCLPP' EQ 'ALL' OR '&JCLPP' EQ 'NONE' OR             -00348000
                '&JCLPP' EQ 'CRITICAL').JCLPND                          00349000
.JCLPERR MNOTE ' ''JCLPRNT=&JCLPRNT'' IS INVALID. SPECIFY ''ALL'', ''CR-00350000
               ITICAL'', OR ''NONE'' '                                  00351000
&JCLPR   SETB  1             PARAMETER ERROR                            00352000
&CAT     SETB  1             CATASTROPHIC                               00353000
.JCLPND  ANOP  ,                                                        00354000
.* CHECK INVPRNT=                                                       00355000
&INVPP   SETC  'CRITICAL'    DEFAULT                                    00356000
         AIF   (T'&INVPRNT EQ 'O').INVPOK                               00357000
&INVPP   SETC  '&INVPRNT'                                               00358000
.INVPOK  ANOP  ,                                                        00359000
&INVPALL SETB  ('&INVPP' EQ 'ALL')                                      00360000