         MACRO                                                          00001000
&NAME    RAPSFCB  &FCBSIZE=256,&LPI=6,&ENDPAGE=66,&MSG='RAPS FCB LOAD',*00002000
               &CH1=,&CH2=,&CH3=,&CH4=,&CH5=,&CH6=,&CH7=,&CH8=,        *00003000
               &CH9=,&CH10=,&CH11=,&CH12=                               00004000
         LCLC  &A                                                       00005000
         PUNCH ' PHASE &NAME,*'                                         00006000
         PUNCH ' INCLUDE'                                               00007000
&NAME    CSECT                                                          00008000
         DC    &FCBSIZE.X'00'      DEFINE TOTAL FCB                     00009000
         AIF   ('&LPI' NE '8').LPI6                                     00010000
         ORG   &NAME                                                    00011000
         DC    X'10'               SET 8 LPI                            00012000
.LPI6    ANOP                                                           00013000
         SPACE 3                                                        00014000
         ORG   &NAME+&ENDPAGE-1                                         00015000
         DC    X'10'               SET END OF PAGE                      00016000
         AIF   ('&CH1' NE '').CH1                                       00017000
         MNOTE 8,'CHANNEL 1 NOT SPECIFIED. MACRO IGNORED'               00018000
         MEXIT                                                          00019000
.CH1     ANOP                                                           00020000
&A       SETC  '16'                                                     00021000
         AIF   ('&CH1' EQ '1' AND '&LPI' EQ '8').CH1A                   00022000
&A       SETC  '00'                                                     00023000
.CH1A    ORG   &NAME+&CH1-1                                             00024000
         DC    AL1(&A+X'01')                                            00025000
.CH2     ANOP                                                           00026000
&A       SETC  '16'                                                     00027000
         AIF   ('&CH2' EQ '').CH3                                       00028000
         AIF   ('&CH2' EQ '&ENDPAGE').CH2A                              00029000
&A       SETC  '00'                                                     00030000
.CH2A    ORG   &NAME+&CH2-1                                             00031000
         DC    AL1(&A+X'02')                                            00032000
.CH3     ANOP                                                           00033000
&A       SETC  '16'                                                     00034000
         AIF   ('&CH3' EQ '').CH4                                       00035000
         AIF   ('&CH3' EQ '&ENDPAGE').CH3A                              00036000
&A       SETC  '00'                                                     00037000
.CH3A    ORG   &NAME+&CH3-1                                             00038000
         DC    AL1(&A+X'03')                                            00039000
.CH4     ANOP                                                           00040000
&A       SETC  '16'                                                     00041000
         AIF   ('&CH4' EQ '').CH5                                       00042000
         AIF   ('&CH4' EQ '&ENDPAGE').CH4A                              00043000
&A       SETC  '00'                                                     00044000
.CH4A    ORG   &NAME+&CH4-1                                             00045000
         DC    AL1(&A+X'04')                                            00046000
.CH5     ANOP                                                           00047000
&A       SETC  '16'                                                     00048000
         AIF   ('&CH5' EQ '').CH6                                       00049000
         AIF   ('&CH5' EQ '&ENDPAGE').CH5A                              00050000
&A       SETC  '00'                                                     00051000
.CH5A    ORG   &NAME+&CH5-1                                             00052000
         DC    AL1(&A+X'05')                                            00053000
.CH6     ANOP                                                           00054000
&A       SETC  '16'                                                     00055000
         AIF   ('&CH6' EQ '').CH7                                       00056000
         AIF   ('&CH6' EQ '&ENDPAGE').CH6A                              00057000
&A       SETC  '00'                                                     00058000
.CH6A    ORG   &NAME+&CH6-1                                             00059000
         DC    AL1(&A+X'06')                                            00060000
.CH7     ANOP                                                           00061000
&A       SETC  '16'                                                     00062000
         AIF   ('&CH7' EQ '').CH8                                       00063000
         AIF   ('&CH7' EQ '&ENDPAGE').CH7A                              00064000
&A       SETC  '00'                                                     00065000
.CH7A    ORG   &NAME+&CH7-1                                             00066000
         DC    AL1(&A+X'07')                                            00067000
.CH8     ANOP                                                           00068000
&A       SETC  '16'                                                     00069000
         AIF   ('&CH8' EQ '').CH9                                       00070000
         AIF   ('&CH8' EQ '&ENDPAGE').CH8A                              00071000
&A       SETC  '00'                                                     00072000
.CH8A    ORG   &NAME+&CH8-1                                             00073000
         DC    AL1(&A+X'08')                                            00074000
.CH9     ANOP                                                           00075000
&A       SETC  '16'                                                     00076000
         AIF   ('&CH9' EQ '').CH10                                      00077000
         AIF   ('&CH9' EQ '&ENDPAGE').CH9A                              00078000
&A       SETC  '00'                                                     00079000
.CH9A    ORG   &NAME+&CH9-1                                             00080000
         DC    AL1(&A+X'09')                                            00081000
.CH10    ANOP                                                           00082000
&A       SETC  '16'                                                     00083000
         AIF   ('&CH10' EQ '').CH11                                     00084000
         AIF   ('&CH10' EQ '&ENDPAGE').CH10A                            00085000
&A       SETC  '00'                                                     00086000
.CH10A   ORG   &NAME+&CH10-1                                            00087000
         DC    AL1(&A+X'0A')                                            00088000
.CH11    ANOP                                                           00089000
&A       SETC  '16'                                                     00090000
         AIF   ('&CH11' EQ '').CH12                                     00091000
         AIF   ('&CH11' EQ '&ENDPAGE').CH11A                            00092000
&A       SETC  '00'                                                     00093000
.CH11A   ORG   &NAME+&CH11-1                                            00094000
         DC    AL1(&A+X'0B')                                            00095000
.CH12    ANOP                                                           00096000
&A       SETC  '16'                                                     00097000
         AIF   ('&CH12' EQ '').ENDP                                     00098000
         AIF   ('&CH12' EQ '&ENDPAGE').CH12A                            00099000
&A       SETC  '00'                                                     00100000
.CH12A   ORG   &NAME+&CH12-1                                            00101000
         DC    AL1(&A+X'0C')                                            00102000
.ENDP    ANOP                                                           00103000
         ORG   &NAME+&FCBSIZE                                           00104000
         DC    CL80&MSG                                                 00105000
         MEND                                                           00106000
