         MACRO                                                          00001000
&NAME    EDCCSNAM &TYPE=,&CODESET=,&CODE=                               00002000
.********************************************************************** 00003000
.***                                                                *** 00004000
.***  IBM Language Environment C for VSE/ESA V1 R4 M0               *** 00005000
.***                                                                *** 00006000
.***  Licensed Materials - Property of IBM                          *** 00007000
.***                                                                *** 00008000
.***  5686-094 (C) Copyright IBM Corp. 1988, 1996.                  *** 00009000
.***  All rights reserved.                                          *** 00010000
.***                                                                *** 00011000
.********************************************************************** 00012000
         AIF   ('&TYPE' EQ 'ENTRY').ENTRY                               00013000
         AIF   ('&TYPE' EQ 'END').END                                   00014000
         MNOTE 8,'TYPE parameter invalid, ENTRY assumed.'               00015000
.ENTRY   ANOP                                                           00016000
         AIF   ('&CODESET' NE '').ENTRY1                                00017000
         MNOTE 8,'CODESET parameter not supplied'                       00018000
         MEXIT                                                          00019000
.ENTRY1  ANOP                                                           00020000
         AIF   ('&CODE' NE '').ENTRY2                                   00021000
         MNOTE 8,'CODE parameter not supplied'                          00022000
         MEXIT                                                          00023000
.ENTRY2  ANOP                                                           00024000
E&SYSNDX DC XL20'00'                                                    00025000
         ORG   E&SYSNDX                                                 00026000
         DC    C&CODESET                                                00027000
         ORG   E&SYSNDX+20                                              00028000
         DC    CL2&CODE                                                 00029000
         MEXIT                                                          00030000
.END     ANOP                                                           00031000
         DC    XL10'00'                                                 00032000
.EXIT    ANOP                                                           00033000
         MEND                                                           00034000
