         MACRO                                                          00001000
&NAME    EDCDSAD                                                        00002000
.********************************************************************** 00003000
.***                                                                *** 00004000
.***  IBM Language Environment C for VSE/ESA V1 R4 M0               *** 00005000
.***                                                                *** 00006000
.***  Licensed Materials - Property of IBM                          *** 00007000
.***                                                                *** 00008000
.***  5686-094 (C) Copyright IBM Corp. 1991, 1996.                  *** 00009000
.***  All rights reserved.                                          *** 00010000
.***                                                                *** 00011000
.********************************************************************** 00012000
.********************************************************************** 00013000
.*                                                                    * 00014000
.*  EDCDSAD - C/370 macro to reserve space on a stack frame           * 00015000
.*                                                                    * 00016000
.*  FUNCTION:                                                         * 00017000
.*      This macro will generate a DSECT, which reserves space for    * 00018000
.*      the stack frame needed for the C/370 environment.             * 00019000
.*                                                                    * 00020000
.*  PARAMETERS:                                                       * 00021000
.*      &NAME        Becomes the name of the generated DSECT.         * 00022000
.*                                                                    * 00023000
.********************************************************************** 00024000
         GBLC  &SYSDSAL                                                 00025000
&NAME    DSECT                                                          00026000
         DS    CL&SYSDSAL                                               00027000
         MEND                                                           00028000
