         MACRO                                                          00001000
&NAME    EDCEPIL                                                        00002000
.********************************************************************** 00003000
.***                                                                *** 00004000
.***  IBM Language Environment C for VSE/ESA V1 R4 M0               *** 00005000
.***                                                                *** 00006000
.***  Licensed Materials - Property of IBM                          *** 00007000
.***                                                                *** 00008000
.***  5686-094 (C) Copyright IBM Corp. 1991, 1996.                  *** 00009000
.***  All rights reserved.                                          *** 00010000
.***                                                                *** 00011000
.********************************************************************** 00012000
.********************************************************************** 00013000
.*                                                                    * 00014000
.*  EDCEPIL - C/370 Epilog                                            * 00015000
.*                                                                    * 00016000
.*  FUNCTION:                                                         * 00017000
.*      This macro will generate assembler epilog code for use with   * 00018000
.*      C/370 assembler Library Routines.                             * 00019000
.*                                                                    * 00020000
.*  PARAMETERS:                                                       * 00021000
.*      &NAME        Becomes the name of the generated DSECT.         * 00022000
.*                                                                    * 00023000
.********************************************************************** 00024000
         GBLC  &EPNAME                                                  00025000
&NAME    L     13,4(,13)          address of caller's save area         00026000
         L     14,12(,13)         restore R14                           00027000
         LM    2,12,28(13)        restore R2 - R12                      00028000
         BALR  1,14               return                                00029000
         DC    AL4(&EPNAME)                                             00030000
         MEND                                                           00031000
