         MACRO                                                          00001000
&NAME    EDCLOC &CHARTYP=2,&CTYPE=,&CTYPE1=,&UPPER=,&LOWER=,&COLLTAB=, *00002000
               &COLLSTR=,&DEC='.',&SEP=,&GROUP=(0,0),&ICURR=,&CURR=,   *00003000
               &MDEC=,&MSEP=,&MPLUS=,&MMINUS=,                         *00004000
               &MIFDIGITS=CHAR_MAX,                                    *00005000
               &MFDIGITS=CHAR_MAX,&MGROUP=(0,0),&MPCSP=CHAR_MAX,       *00006000
               &MPSBYS=CHAR_MAX,&MNCSP=CHAR_MAX,&MNSBS=CHAR_MAX,       *00007000
               &MPLUSPOS=CHAR_MAX,&MMINUSPOS=CHAR_MAX,                 *00008000
               &SDAYS=(Sun,Mon,Tue,Wed,Thu,Fri,Sat),                   *00009000
               &LDAYS=(Sunday,Monday,Tuesday,Wednesday,Thursday,       *00010000
               Friday,Saturday),                                       *00011000
               &SMONS=(Jan,Feb,Mar,Apr,May,Jun,                        *00012000
               Jul,Aug,Sep,Oct,Nov,Dec),                               *00013000
               &LMONS=(January,February,March,April,May,June,          *00014000
               July,August,September,October,November,December),       *00015000
               &DATFMT='%m/%d/%y',&TIMFMT='%I:%M:%S',&AM='AM',&PM='PM',*00016000
               &DATTIM='%y/%m/%d %X',                                  *00017000
               &TZDIFF=1500,&TNAME=,                                   *00018000
               &DSTSTM=0,&DSTSTW=0,&DSTSTD=0,&STARTTM=0,&SHIFT=0,      *00019000
               &DSTENM=0,&DSTENW=0,&DSTEND=0,&ENDTM=0,&DSTNAME=,       *00020000
               &VERSION=1                                               00021000
.********************************************************************** 00022000
.***                                                                *** 00023000
.***  IBM Language Environment C for VSE/ESA V1 R4 M0               *** 00024000
.***                                                                *** 00025000
.***  Licensed Materials - Property of IBM                          *** 00026000
.***                                                                *** 00027000
.***  5686-094 (C) Copyright IBM Corp. 1988, 1996.                  *** 00028000
.***  All rights reserved.                                          *** 00029000
.***                                                                *** 00030000
.********************************************************************** 00031000
.********************************************************************** 00032000
.*                                                                    * 00033000
.*  EDCLOC - C/370 Locale Generation                                  * 00034000
.*                                                                    * 00035000
.*  FUNCTION:                                                         * 00036000
.*      This macro will generate a locale for C/370.                  * 00037000
.*                                                                    * 00038000
.********************************************************************** 00039000
         LCLA   &I,&J                                                   00040000
         LCLC   &S                                                      00041000
&NAME    CSECT                                                          00042000
         DS     0F                                                      00043000
         DC     A(&VERSION)         Version number                      00044000
         DC     A(CHARTYP)          1 or 2 for SBCS or DBCS             00045000
         DC     A(CTYPE+2)          Character type table                00046000
         DC     A(COLLTAB)          Collating table                     00047000
         DC     A(DEC)              Decimal character                   00048000
         DC     A(THOU)             Thousands separator                 00049000
         DC     A(GROUP)            Thousands Grouping                  00050000
         DC     A(ICURR)            International Currency Symbol       00051000
         DC     A(CURR)             Local Currency Symbol               00052000
         DC     A(MDEC)             Monetary Decimal Point              00053000
         DC     A(MSEP)             Monetary thousands separator        00054000
         DC     A(MGROUP)           Monetary Grouping                   00055000
         DC     A(MPLUS)            Monetary Plus                       00056000
         DC     A(MMINUS)           Monetary Minus                      00057000
         DC     AL1(&MIFDIGITS)     Int'l Monetary fractional digits    00058000
         DC     AL1(&MFDIGITS)      Monetary fractional digits          00059000
         DC     AL1(&MPCSP)         0 -> $ follows +ve value..          00060000
         DC     AL1(&MPSBYS)        0 -> ..with no space between        00061000
         DC     AL1(&MNCSP)         0 -> $ follows -ve value..          00062000
         DC     AL1(&MNSBS)         0 -> ..with no space between        00063000
         DC     AL1(&MPLUSPOS)      0..4 see 4.4.2.1                    00064000
         DC     AL1(&MMINUSPOS)                                         00065000
         DC     A(FMTSTR)                                               00066000
         DC     A(TZONE)                                                00067000
A        EQU    B'0000000100000000'                                     00068000
U        EQU    B'0000000010000000'                                     00069000
L        EQU    B'0000000001000000'                                     00070000
C        EQU    B'0000000000100000'                                     00071000
P        EQU    B'0000000000010000'                                     00072000
W        EQU    B'0000000000001000'                                     00073000
S        EQU    B'0000000000000100'                                     00074000
D        EQU    B'0000000000000010'                                     00075000
X        EQU    B'0000000000000001'                                     00076000
ASIS     EQU    X'00'                                                   00077000
IGN      EQU    -1                                                      00078000
EOF      EQU    -1                                                      00079000
CHAR_MAX EQU    255                                                     00080000
CHARTYP  DC     C'&CHARTYP',X'00'                                       00081000
CTYPE    DC     AL2(0)            C type table       /* EOF */          00082000
         DC     AL2(C,C,C,C,C,C+W,C,C)               /*00-07*/          00083000
         DC     AL2(C,C,C,C+W,C+W,C+W,C,C)           /*08-0F*/          00084000
         DC     AL2(C,C,C,C,C,C+W,C,C)               /*10-17*/          00085000
         DC     AL2(C,C,C,C,C,C,C,C)                 /*18-1F*/          00086000
         DC     AL2(C,C,C,C,C,C,C,C)                 /*20-27*/          00087000
         DC     AL2(C,0,C,C,C,C,C,C)                 /*28-2F*/          00088000
         DC     AL2(0,0,C,C,C,C,C,C)                 /*30-37*/          00089000
         DC     AL2(C,C,C,C,C,C,0,C)                 /*38-3F*/          00090000
         DC     AL2(W+S,0,0,0,0,0,0,0)               /*40-47*/          00091000
         DC     AL2(0,0,P,P,P,P,P,P)                 /*48-4F*/          00092000
         DC     AL2(P,0,0,0,0,0,0,0)                 /*50-57*/          00093000
         DC     AL2(0,0,P,P,P,P,P,P)                 /*58-5F*/          00094000
         DC     AL2(P,P,0,0,0,0,0,0)                 /*60-67*/          00095000
         DC     AL2(0,0,P,P,P,P,P,P)                 /*68-6F*/          00096000
         DC     AL2(0,0,0,0,0,0,0,0)                 /*70-77*/          00097000
         DC     AL2(0,P,P,P,P,P,P,P)                 /*78-7F*/          00098000
         DC     AL2(0,A+L+X,A+L+X,A+L+X,A+L+X,A+L+X,A+L+X,A+L)  /*80-8  00099000
         DC     AL2(A+L,A+L,0,0,0,0,0,0)             /*88-8F*/          00100000
         DC     AL2(0,A+L,A+L,A+L,A+L,A+L,A+L,A+L)   /*90-97*/          00101000
         DC     AL2(A+L,A+L,0,0,0,0,0,0)             /*98-9F*/          00102000
         DC     AL2(0,P,A+L,A+L,A+L,A+L,A+L,A+L)     /*A0-A7*/          00103000
         DC     AL2(A+L,A+L,0,0,0,P,0,0)             /*A8-AF*/          00104000
         DC     AL2(0,0,0,0,0,0,0,0)                 /*B0-B7*/          00105000
         DC     AL2(0,0,0,0,0,P,0,0)                 /*B8-BF*/          00106000
         DC     AL2(P,A+U+X,A+U+X,A+U+X,A+U+X,A+U+X,A+U+X,A+U)  /*C0-C  00107000
         DC     AL2(A+U,A+U,0,0,0,0,0,0)             /*C8-CF*/          00108000
         DC     AL2(P,A+U,A+U,A+U,A+U,A+U,A+U,A+U)   /*D0-D7*/          00109000
         DC     AL2(A+U,A+U,0,0,0,0,0,0)             /*D8-DF*/          00110000
         DC     AL2(P,0,A+U,A+U,A+U,A+U,A+U,A+U)     /*E0-E7*/          00111000
         DC     AL2(A+U,A+U,0,0,0,0,0,0)             /*E8-EF*/          00112000
         DC     AL2(D+X,D+X,D+X,D+X,D+X,D+X,D+X,D+X) /*F0-F7*/          00113000
         DC     AL2(D+X,D+X,0,0,0,0,0,0)             /*F8-FF*/          00114000
TOUPPER  DC     AL2(EOF)        UPPER CASE conversion      /* EOF   */  00115000
  DC  AL2(X'00',X'01',X'02',X'03',X'04',X'05',X'06',X'07') /* 00-07 */  00116000
  DC  AL2(X'08',X'09',X'0A',X'0B',X'0C',X'0D',X'0E',X'0F') /* 08-0F */  00117000
  DC  AL2(X'10',X'11',X'12',X'13',X'14',X'15',X'16',X'17') /* 10-17 */  00118000
  DC  AL2(X'18',X'19',X'1A',X'1B',X'1C',X'1D',X'1E',X'1F') /* 18-1F */  00119000
  DC  AL2(X'20',X'21',X'22',X'23',X'24',X'25',X'26',X'27') /* 20-27 */  00120000
  DC  AL2(X'28',X'29',X'2A',X'2B',X'2C',X'2D',X'2E',X'2F') /* 28-2F */  00121000
  DC  AL2(X'30',X'31',X'32',X'33',X'34',X'35',X'36',X'37') /* 30-37 */  00122000
  DC  AL2(X'38',X'39',X'3A',X'3B',X'3C',X'3D',X'3E',X'3F') /* 38-3F */  00123000
  DC  AL2(X'40',X'41',X'42',X'43',X'44',X'45',X'46',X'47') /* 40-47 */  00124000
  DC  AL2(X'48',X'49',X'4A',X'4B',X'4C',X'4D',X'4E',X'4F') /* 48-4F */  00125000
  DC  AL2(X'50',X'51',X'52',X'53',X'54',X'55',X'56',X'57') /* 50-57 */  00126000
  DC  AL2(X'58',X'59',X'5A',X'5B',X'5C',X'5D',X'5E',X'5F') /* 58-5F */  00127000
  DC  AL2(X'60',X'61',X'62',X'63',X'64',X'65',X'66',X'67') /* 60-67 */  00128000
  DC  AL2(X'68',X'69',X'6A',X'6B',X'6C',X'6D',X'6E',X'6F') /* 68-6F */  00129000
  DC  AL2(X'70',X'71',X'72',X'73',X'74',X'75',X'76',X'77') /* 70-77 */  00130000
  DC  AL2(X'78',X'79',X'7A',X'7B',X'7C',X'7D',X'7E',X'7F') /* 78-7F */  00131000
  DC  AL2(X'80',X'C1',X'C2',X'C3',X'C4',X'C5',X'C6',X'C7') /* 80-87 */  00132000
  DC  AL2(X'C8',X'C9',X'8A',X'8B',X'8C',X'8D',X'8E',X'8F') /* 88-8F */  00133000
  DC  AL2(X'90',X'D1',X'D2',X'D3',X'D4',X'D5',X'D6',X'D7') /* 90-97 */  00134000
  DC  AL2(X'D8',X'D9',X'9A',X'9B',X'9C',X'9D',X'9E',X'9F') /* 98-9F */  00135000
  DC  AL2(X'A0',X'A1',X'E2',X'E3',X'E4',X'E5',X'E6',X'E7') /* A0-A7 */  00136000
  DC  AL2(X'E8',X'E9',X'AA',X'AB',X'AC',X'AD',X'AE',X'AF') /* A8-AF */  00137000
  DC  AL2(X'B0',X'B1',X'B2',X'B3',X'B4',X'B5',X'B6',X'B7') /* B0-B7 */  00138000
  DC  AL2(X'B8',X'B9',X'BA',X'BB',X'BC',X'BD',X'BE',X'BF') /* B8-BF */  00139000
  DC  AL2(X'C0',X'C1',X'C2',X'C3',X'C4',X'C5',X'C6',X'C7') /* C0-C7 */  00140000
  DC  AL2(X'C8',X'C9',X'CA',X'CB',X'CC',X'CD',X'CE',X'CF') /* C8-CF */  00141000
  DC  AL2(X'D0',X'D1',X'D2',X'D3',X'D4',X'D5',X'D6',X'D7') /* D0-D7 */  00142000
  DC  AL2(X'D8',X'D9',X'DA',X'DB',X'DC',X'DD',X'DE',X'DF') /* D8-DF */  00143000
  DC  AL2(X'E0',X'E1',X'E2',X'E3',X'E4',X'E5',X'E6',X'E7') /* E0-E7 */  00144000
  DC  AL2(X'E8',X'E9',X'EA',X'EB',X'EC',X'ED',X'EE',X'EF') /* E8-EF */  00145000
  DC  AL2(X'F0',X'F1',X'F2',X'F3',X'F4',X'F5',X'F6',X'F7') /* F0-F7 */  00146000
  DC  AL2(X'F8',X'F9',X'FA',X'FB',X'FC',X'FD',X'FE',X'FF') /* F8-FF */  00147000
TOLOWER DC AL2(EOF)             Lower case conversion      /* EOF   */  00148000
  DC  AL2(X'00',X'01',X'02',X'03',X'04',X'05',X'06',X'07') /* 00-07 */  00149000
  DC  AL2(X'08',X'09',X'0A',X'0B',X'0C',X'0D',X'0E',X'0F') /* 08-0F */  00150000
  DC  AL2(X'10',X'11',X'12',X'13',X'14',X'15',X'16',X'17') /* 10-17 */  00151000
  DC  AL2(X'18',X'19',X'1A',X'1B',X'1C',X'1D',X'1E',X'1F') /* 18-1F */  00152000
  DC  AL2(X'20',X'21',X'22',X'23',X'24',X'25',X'26',X'27') /* 20-27 */  00153000
  DC  AL2(X'28',X'29',X'2A',X'2B',X'2C',X'2D',X'2E',X'2F') /* 28-2F */  00154000
  DC  AL2(X'30',X'31',X'32',X'33',X'34',X'35',X'36',X'37') /* 30-37 */  00155000
  DC  AL2(X'38',X'39',X'3A',X'3B',X'3C',X'3D',X'3E',X'3F') /* 38-3F */  00156000
  DC  AL2(X'40',X'41',X'42',X'43',X'44',X'45',X'46',X'47') /* 40-47 */  00157000
  DC  AL2(X'48',X'49',X'4A',X'4B',X'4C',X'4D',X'4E',X'4F') /* 48-4F */  00158000
  DC  AL2(X'50',X'51',X'52',X'53',X'54',X'55',X'56',X'57') /* 50-57 */  00159000
  DC  AL2(X'58',X'59',X'5A',X'5B',X'5C',X'5D',X'5E',X'5F') /* 58-5F */  00160000
  DC  AL2(X'60',X'61',X'62',X'63',X'64',X'65',X'66',X'67') /* 60-67 */  00161000
  DC  AL2(X'68',X'69',X'6A',X'6B',X'6C',X'6D',X'6E',X'6F') /* 68-6F */  00162000
  DC  AL2(X'70',X'71',X'72',X'73',X'74',X'75',X'76',X'77') /* 70-77 */  00163000
  DC  AL2(X'78',X'79',X'7A',X'7B',X'7C',X'7D',X'7E',X'7F') /* 78-7F */  00164000
  DC  AL2(X'80',X'81',X'82',X'83',X'84',X'85',X'86',X'87') /* 80-87 */  00165000
  DC  AL2(X'88',X'89',X'8A',X'8B',X'8C',X'8D',X'8E',X'8F') /* 88-8F */  00166000
  DC  AL2(X'90',X'91',X'92',X'93',X'94',X'95',X'96',X'97') /* 90-97 */  00167000
  DC  AL2(X'98',X'99',X'9A',X'9B',X'9C',X'9D',X'9E',X'9F') /* 98-9F */  00168000
  DC  AL2(X'A0',X'A1',X'A2',X'A3',X'A4',X'A5',X'A6',X'A7') /* A0-A7 */  00169000
  DC  AL2(X'A8',X'A9',X'AA',X'AB',X'AC',X'AD',X'AE',X'AF') /* A8-AF */  00170000
  DC  AL2(X'B0',X'B1',X'B2',X'B3',X'B4',X'B5',X'B6',X'B7') /* B0-B7 */  00171000
  DC  AL2(X'B8',X'B9',X'BA',X'BB',X'BC',X'BD',X'BE',X'BF') /* B8-BF */  00172000
  DC  AL2(X'C0',X'81',X'82',X'83',X'84',X'85',X'86',X'87') /* C0-C7 */  00173000
  DC  AL2(X'88',X'89',X'CA',X'CB',X'CC',X'CD',X'CE',X'CF') /* C8-CF */  00174000
  DC  AL2(X'D0',X'91',X'92',X'93',X'94',X'95',X'96',X'97') /* D0-D7 */  00175000
  DC  AL2(X'98',X'99',X'DA',X'DB',X'DC',X'DD',X'DE',X'DF') /* D8-DF */  00176000
  DC  AL2(X'E0',X'E1',X'A2',X'A3',X'A4',X'A5',X'A6',X'A7') /* E0-E7 */  00177000
  DC  AL2(X'A8',X'A9',X'EA',X'EB',X'EC',X'ED',X'EE',X'EF') /* E8-EF */  00178000
  DC  AL2(X'F0',X'F1',X'F2',X'F3',X'F4',X'F5',X'F6',X'F7') /* F0-F7 */  00179000
  DC  AL2(X'F8',X'F9',X'FA',X'FB',X'FC',X'FD',X'FE',X'FF') /* F8-FF */  00180000
.* Check for overrides to CTYPE                                         00181000
&I       SETA   1                                                       00182000
.NCTYPE  ANOP                                                           00183000
         AIF    (&I GT N'&CTYPE).ECTYPE                                 00184000
         ORG    CTYPE+2+(2*&CTYPE(&I,1))  reposition in table           00185000
         DC     AL2(&CTYPE(&I,2))         type for this value           00186000
&I       SETA   &I+1                                                    00187000
         AGO    .NCTYPE                                                 00188000
.ECTYPE  ANOP                                                           00189000
         ORG                                                            00190000
.* Check for overrides to UPPER                                         00191000
&I       SETA   1                                                       00192000
.NUPPER  ANOP                                                           00193000
         AIF    (&I GT N'&UPPER).EUPPER                                 00194000
         ORG    TOUPPER+2+(2*&UPPER(&I,1)) reposition in table          00195000
         DC     AL2(&UPPER(&I,2))          upper case equivalent        00196000
&I       SETA   &I+1                                                    00197000
         AGO    .NUPPER                                                 00198000
.EUPPER  ANOP                                                           00199000
         ORG                                                            00200000
.* Check for overrides to LOWER                                         00201000
&I       SETA   1                                                       00202000
.NLOWER  ANOP                                                           00203000
         AIF    (&I GT N'&LOWER).ELOWER                                 00204000
         ORG    TOLOWER+2+(2*&LOWER(&I,1)) reposition in table          00205000
         DC     AL2(&LOWER(&I,2))          lower case equivalent        00206000
&I       SETA   &I+1                                                    00207000
         AGO    .NLOWER                                                 00208000
.ELOWER  ANOP                                                           00209000
         ORG                                                            00210000
COLLTAB  DC     256AL2(ASIS)                                            00211000
.* Check for overrides to COLLTAB                                       00212000
&I       SETA   1                                                       00213000
.NCOLL   ANOP                                                           00214000
         AIF    (&I GT N'&COLLTAB).ECOLL                                00215000
         ORG    COLLTAB+(2*&COLLTAB(&I,1)) reposition in table          00216000
         DC     AL2(&COLLTAB(&I,2))        collating value              00217000
&I       SETA   &I+1                                                    00218000
         AGO    .NCOLL                                                  00219000
.ECOLL   ANOP                                                           00220000
         ORG                                                            00221000
         AIF    (N'&COLLSTR EQ 0).NOCOLLS                               00222000
&I       SETA   N'&COLLSTR                                              00223000
COLLPTR  DC     (&I)AL4(0)                                              00224000
&I       SETA   1                                                       00225000
.NCOLLS  ANOP                                                           00226000
         AIF    (&I GT N'&COLLSTR).ECOLLS                               00227000
         ORG    COLLTAB+(2*&COLLSTR(&I,1))    reposition in table       00228000
         DC     AL2(255+&I)                   index of -> strings       00229000
         ORG    COLLPTR+4*(&I-1)              position to string ptr    00230000
         DC     AL4(CS&I)                     -> string for this letter 00231000
&J       SETA   2                                                       00232000
         ORG                                                            00233000
CS&I     DS     0C                            list of collate strings   00234000
.NCOLLE  ANOP                                                           00235000
         AIF    (&J GT N'&COLLSTR(&I)).ECOLLE                           00236000
         DC     &COLLSTR(&I,&J)               a collate string          00237000
         DC     X'00'                         null terminator           00238000
&J       SETA   &J+1                                                    00239000
         AGO    .NCOLLE                                                 00240000
.ECOLLE  ANOP                                                           00241000
         DC     X'00'                         no more strings           00242000
&I       SETA   &I+1                                                    00243000
         AGO    .NCOLLS                                                 00244000
.ECOLLS  ANOP                                                           00245000
.NOCOLLS ANOP                                                           00246000
&I       SETA   1                                                       00247000
DEC      DS     0C                            decimal character         00248000
         AIF    (K'&DEC EQ 0).NODEC                                     00249000
         DC     C&DEC                                                   00250000
         DC     X'00'                                                   00251000
.NODEC   ANOP                                                           00252000
CURR     DS     0C                            currency symbol           00253000
         AIF    (K'&CURR EQ 0).NOCURR                                   00254000
         DC     C&CURR                                                  00255000
.NOCURR  ANOP                                                           00256000
         DC     X'00'                                                   00257000
THOU     DS     0C                                                      00258000
         AIF    (K'&SEP EQ 0).NOTHOU                                    00259000
         DC     C&SEP                                                   00260000
.NOTHOU  ANOP                                                           00261000
         DC     X'00'                                                   00262000
GROUP    DC     AL1&GROUP                     thousands grouping        00263000
ICURR    DS     0C                            international currency    00264000
         AIF    (K'&ICURR EQ 0).NOICURR                                 00265000
         DC     C&ICURR                                                 00266000
.NOICURR ANOP                                                           00267000
         DC     X'00'                                                   00268000
MDEC     DS     0C                            monetary decimal          00269000
         AIF    (K'&MDEC EQ 0).NOMDEC                                   00270000
         DC     C&MDEC                                                  00271000
.NOMDEC  ANOP                                                           00272000
         DC     X'00'                                                   00273000
MSEP     DS     0C                            monetary separator        00274000
         AIF    (K'&MSEP EQ 0).NOMSEP                                   00275000
         DC     C&MSEP                                                  00276000
.NOMSEP  ANOP                                                           00277000
         DC     X'00'                                                   00278000
MGROUP   DC     AL1&MGROUP                    monetary grouping         00279000
MPLUS    DS     0C                                                      00280000
         AIF    (K'&MPLUS EQ 0).NOMPLUS                                 00281000
         DC     C&MPLUS                                                 00282000
.NOMPLUS ANOP                                                           00283000
         DC     X'00'                                                   00284000
MMINUS   DS     0C                                                      00285000
         AIF    (K'&MMINUS EQ 0).NOMINUS                                00286000
         DC     C&MMINUS                                                00287000
.NOMINUS ANOP                                                           00288000
         DC     X'00'                                                   00289000
FMTSTR   DS     0A                                                      00290000
         DC     A(SSU,SMO,STU,SWE,STH,SFR,SSA)                          00291000
         DC     A(LSU,LMO,LTU,LWE,LTH,LFR,LSA)                          00292000
         DC     A(SJA,SFE,SMR,SAP,SMY,SJU,SJL,SAU,SSE,SOC,SNO,SDE)      00293000
         DC     A(LJA,LFE,LMR,LAP,LMY,LJU,LJL,LAU,LSE,LOC,LNO,LDE)      00294000
         DC     A(DATFMT)                                               00295000
         DC     A(TIMFMT)                                               00296000
         DC     A(DATTIM)                                               00297000
         DC     A(AM,PM)                                                00298000
SSU      DC     C'&SDAYS(1)',X'00'                                      00299000
SMO      DC     C'&SDAYS(2)',X'00'                                      00300000
STU      DC     C'&SDAYS(3)',X'00'                                      00301000
SWE      DC     C'&SDAYS(4)',X'00'                                      00302000
STH      DC     C'&SDAYS(5)',X'00'                                      00303000
SFR      DC     C'&SDAYS(6)',X'00'                                      00304000
SSA      DC     C'&SDAYS(7)',X'00'                                      00305000
SJA      DC     C'&SMONS(1)',X'00'                                      00306000
SFE      DC     C'&SMONS(2)',X'00'                                      00307000
SMR      DC     C'&SMONS(3)',X'00'                                      00308000
SAP      DC     C'&SMONS(4)',X'00'                                      00309000
SMY      DC     C'&SMONS(5)',X'00'                                      00310000
SJU      DC     C'&SMONS(6)',X'00'                                      00311000
SJL      DC     C'&SMONS(7)',X'00'                                      00312000
SAU      DC     C'&SMONS(8)',X'00'                                      00313000
SSE      DC     C'&SMONS(9)',X'00'                                      00314000
SOC      DC     C'&SMONS(10)',X'00'                                     00315000
SNO      DC     C'&SMONS(11)',X'00'                                     00316000
SDE      DC     C'&SMONS(12)',X'00'                                     00317000
.*                                                                      00318000
LSU      DC     C'&LDAYS(1)',X'00'                                      00319000
LMO      DC     C'&LDAYS(2)',X'00'                                      00320000
LTU      DC     C'&LDAYS(3)',X'00'                                      00321000
LWE      DC     C'&LDAYS(4)',X'00'                                      00322000
LTH      DC     C'&LDAYS(5)',X'00'                                      00323000
LFR      DC     C'&LDAYS(6)',X'00'                                      00324000
LSA      DC     C'&LDAYS(7)',X'00'                                      00325000
LJA      DC     C'&LMONS(1)',X'00'                                      00326000
LFE      DC     C'&LMONS(2)',X'00'                                      00327000
LMR      DC     C'&LMONS(3)',X'00'                                      00328000
LAP      DC     C'&LMONS(4)',X'00'                                      00329000
LMY      DC     C'&LMONS(5)',X'00'                                      00330000
LJU      DC     C'&LMONS(6)',X'00'                                      00331000
LJL      DC     C'&LMONS(7)',X'00'                                      00332000
LAU      DC     C'&LMONS(8)',X'00'                                      00333000
LSE      DC     C'&LMONS(9)',X'00'                                      00334000
LOC      DC     C'&LMONS(10)',X'00'                                     00335000
LNO      DC     C'&LMONS(11)',X'00'                                     00336000
LDE      DC     C'&LMONS(12)',X'00'                                     00337000
DATFMT   DS     0C                                                      00338000
         AIF    (K'&DATFMT EQ 0).NODATFM                                00339000
         DC     C&DATFMT                                                00340000
.NODATFM ANOP                                                           00341000
         DC     X'00'                                                   00342000
TIMFMT   DS     0C                                                      00343000
         AIF    (K'&TIMFMT EQ 0).NOTIMFM                                00344000
         DC     C&TIMFMT                                                00345000
.NOTIMFM ANOP                                                           00346000
         DC     X'00'                                                   00347000
DATTIM   DS     0C                                                      00348000
         AIF    (K'&DATTIM EQ 0).NODATTM                                00349000
         DC     C&DATTIM                                                00350000
.NODATTM ANOP                                                           00351000
         DC     X'00'                                                   00352000
AM       DS     0C                                                      00353000
         AIF    (K'&AM EQ 0).NOAM                                       00354000
         DC     C&AM                                                    00355000
.NOAM    ANOP                                                           00356000
         DC     X'00'                                                   00357000
PM       DS     0C                                                      00358000
         AIF    (K'&PM EQ 0).NOPM                                       00359000
         DC     C&PM                                                    00360000
.NOPM    ANOP                                                           00361000
         DC     X'00'                                                   00362000
TZONE    DS     0A                   Time zone definition               00363000
         DC     A(&TZDIFF)           diff from UTC (>25=ask system)     00364000
         AIF    (K'&TNAME EQ 0).TNAME1                                  00365000
         DC     A(TNAME)             Address of time zone name          00366000
         AGO    .TNAME2                                                 00367000
.TNAME1  ANOP                                                           00368000
         DC     A(0)                 No time zone name                  00369000
.TNAME2  ANOP                                                           00370000