         MACRO                                                          00001000
&NAME    EDCLOCNM &TYPE=,&LOCALE=,&CODESET=,&CODE=                      00002000
.********************************************************************** 00003000
.***                                                                *** 00004000
.***  IBM Language Environment C for VSE/ESA V1 R4 M0               *** 00005000
.***                                                                *** 00006000
.***  Licensed Materials - Property of IBM                          *** 00007000
.***                                                                *** 00008000
.***  5686-094 (C) Copyright IBM Corp. 1988, 1996.                  *** 00009000
.***  All rights reserved.                                          *** 00010000
.***                                                                *** 00011000
.********************************************************************** 00012000
         AIF   ('&TYPE' EQ 'ENTRY').ENTRY                               00013000
         AIF   ('&TYPE' EQ 'END').END                                   00014000
         MNOTE 8,'TYPE parameter invalid, ENTRY assumed.'               00015000
.ENTRY   ANOP                                                           00016000
         AIF   ('&LOCALE' NE '').ENTRY1                                 00017000
         MNOTE 8,'LOCALE parameter not supplied'                        00018000
         MEXIT                                                          00019000
.ENTRY1  ANOP                                                           00020000
         AIF   ('&CODESET' NE '').ENTRY2                                00021000
         MNOTE 8,'CODESET parameter not supplied'                       00022000
         MEXIT                                                          00023000
.ENTRY2  ANOP                                                           00024000
         AIF   ('&CODE' NE '').ENTRY3                                   00025000
         MNOTE 8,'CODE parameter not supplied'                          00026000
         MEXIT                                                          00027000
.ENTRY3  ANOP                                                           00028000
L&SYSNDX DC    XL10'00'                                                 00029000
         ORG   L&SYSNDX                                                 00030000
         DC    C&LOCALE                                                 00031000
         ORG   L&SYSNDX+10                                              00032000
         DC    CL2&CODE                                                 00033000
C&SYSNDX DC    XL20'00'                                                 00034000
         ORG   C&SYSNDX                                                 00035000
         DC    C&CODESET                                                00036000
         ORG   C&SYSNDX+20                                              00037000
         MEXIT                                                          00038000
.END     ANOP                                                           00039000
         DC    XL10'00'                                                 00040000
.EXIT    ANOP                                                           00041000
         MEND                                                           00042000
