         MACRO                                                          00001000
&NAME    EDCLOCTZ &TZDIFF=1500,&TNAME=,                                *00002000
               &DSTSTM=0,&DSTSTW=0,&DSTSTD=0,&STARTTM=0,&SHIFT=0,      *00003000
               &DSTENM=0,&DSTENW=0,&DSTEND=0,&ENDTM=0,&DSTNAME=,       *00004000
               &UCTNAME='UTC'                                           00005000
.********************************************************************** 00006000
.***                                                                *** 00007000
.***  IBM Language Environment C for VSE/ESA V1 R4 M0               *** 00008000
.***                                                                *** 00009000
.***  Licensed Materials - Property of IBM                          *** 00010000
.***                                                                *** 00011000
.***  5686-094 (C) Copyright IBM Corp. 1991, 1996.                  *** 00012000
.***  All rights reserved.                                          *** 00013000
.***                                                                *** 00014000
.********************************************************************** 00015000
.* Expansion for S370-style time zone                                   00016000
EDC$S370 RMODE  ANY                                                     00017000
EDC$S370 AMODE  31                                                      00018000
EDC$S370 EDCLOC TZDIFF=&TZDIFF,TNAME=&TNAME,                           *00019000
               DSTSTM=&DSTSTM,DSTSTW=&DSTSTW,DSTSTD=&DSTSTD,           *00020000
               STARTTM=&STARTTM,SHIFT=&SHIFT,                          *00021000
               DSTENM=&DSTENM,DSTENW=&DSTENW,DSTEND=&DSTEND,           *00022000
               ENDTM=&ENDTM,DSTNAME=&DSTNAME                            00023000
.* Expansion for POSIX-style time zone                                  00024000
*                                                                       00025000
@C@TOD   RMODE  ANY                                                     00026000
@C@TOD   AMODE  31                                                      00027000
EDCLCTOD EDCTODST TZDIFF=&TZDIFF,TNAME=&TNAME,                         *00028000
               DSTSTM=&DSTSTM,DSTSTW=&DSTSTW,DSTSTD=&DSTSTD,           *00029000
               STARTTM=&STARTTM,SHIFT=&SHIFT,                          *00030000
               DSTENM=&DSTENM,DSTENW=&DSTENW,DSTEND=&DSTEND,           *00031000
               ENDTM=&ENDTM,DSTNAME=&DSTNAME,UCTNAME=&UCTNAME           00032000
         MEND                                                           00033000
