         MACRO                                                          00001000
&NAME    EDCLA   &REG,&VAR                                              00002000
.********************************************************************** 00003000
.***                                                                *** 00004000
.***  IBM Language Environment C for VSE/ESA V2 R1 M0               *** 00005000
.***                                                                *** 00006000
.***  Licensed Materials - Property of IBM                          *** 00007000
.***                                                                *** 00008000
.***  5686-094 (C) Copyright IBM Corp. 1988, 1996.                  *** 00009000
.***  All rights reserved.                                          *** 00010000
.***                                                                *** 00011000
.********************************************************************** 00012000
.********************************************************************** 00013000
.*                                                                    * 00014000
.*  EDCLA - Load address of a writeable static variable               * 00015000
.*                                                                    * 00016000
.*  FUNCTION:                                                         * 00017000
.*      The macro loads the address of the writeable static variable  * 00018000
.*      into a register.                                              * 00019000
.*                                                                    * 00020000
.*  PARAMETERS:                                                       * 00021000
.*      &NAME      optional name                                      * 00022000
.*      &REG       register to load the address into                  * 00023000
.*      &VAR       name of the writeable static variable              * 00024000
.*                                                                    * 00025000
.*  NOTE: This macro can only be used for variables declared using    * 00026000
.*        the macro EDCDXD.                                           * 00027000
.*                                                                    * 00028000
.********************************************************************** 00029000
         GBLA  &RENT                                                    00030000
         AIF (&RENT EQ 1).RENTSET                                       00031000
&RENT    SETA  1                                                        00032000
         EXTRN @@XINIT@                                                 00033000
.RENTSET ANOP                                                           00034000
&TCAREG  SETA  12                                                       00035000
&TCARREG SETC  'R12'                                                    00036000
&TCASLOT SETA  500                                                      00037000
         AIF ('&REG' EQ '&TCAREG').MCNFLCT                              00038000
         AIF ('&REG' EQ '&TCARREG').MCNFLCT                             00039000
         AGO .REGLAR                                                    00040000
.MCNFLCT MNOTE 8,'REGISTER &REG USAGE CONFLICTS WITH TCA REGISTER'      00041000
         MEXIT                                                          00042000
.REGLAR  ANOP                                                           00043000
&NAME    L     &REG,=Q(&VAR)           Get displacement of variable     00044000
         A     &REG,&TCASLOT.(&TCAREG) Add base address from TCA        00045000
.MEND    MEND                                                           00046000
