         MACRO                                                          00001000
&NAME    EDCTODST &TZDIFF=1500,&TNAME=,                                *00002000
               &DSTSTM=0,&DSTSTW=0,&DSTSTD=0,&STARTTM=0,&SHIFT=0,      *00003000
               &DSTENM=0,&DSTENW=0,&DSTEND=0,&ENDTM=0,&DSTNAME=,       *00004000
               &UCTNAME='UTC'                                           00005000
.********************************************************************** 00006000
.***                                                                *** 00007000
.***  IBM Language Environment C for VSE/ESA V1 R4 M0               *** 00008000
.***                                                                *** 00009000
.***  Licensed Materials - Property of IBM                          *** 00010000
.***                                                                *** 00011000
.***  5686-094 (C) Copyright IBM Corp. 1991, 1996.                  *** 00012000
.***  All rights reserved.                                          *** 00013000
.***                                                                *** 00014000
.********************************************************************** 00015000
@C@TOD   CSECT                                                          00016000
         DC    H'11'              LC_TOD type id                        00017000
         DC    XL2'D3C3'          _LC_MAGIC                             00018000
         DC    XL4'00011000'      _LC_VERSION                           00019000
         DC    F'0'               size                                  00020000
         DC    V(@@TDINIT)        __tod_init                            00021000
         DC    A(0)               size                                  00022000
         DC    A(&TZDIFF)         tzdiff                                00023000
         DC    A(TNAME1)          tname                                 00024000
         DC    A(DSTNAME1)        tzname                                00025000
         DC    A(&DSTSTM)         dststm                                00026000
         DC    A(&DSTENM)         dstenm                                00027000
         DC    A(&DSTSTW)         dststw                                00028000
         DC    A(&DSTENW)         dstenw                                00029000
         DC    A(&DSTSTD)         dststd                                00030000
         DC    A(&DSTEND)         dstend                                00031000
         DC    A(&STARTTM)        starttm                               00032000
         DC    A(&ENDTM)          endtm                                 00033000
         DC    A(&SHIFT)          shift                                 00034000
         DC    A(UCTNAME)         uctname                               00035000
.*                                                                      00036000
         AIF   (K'&TNAME EQ 0).TNAME1                                   00037000
TNAME1   DC    C&TNAME                                                  00038000
         DC    X'00'                                                    00039000
         AGO   .TNAME2                                                  00040000
.TNAME1  ANOP                                                           00041000
TNAME1   DC    X'00'                                                    00042000
.TNAME2  ANOP                                                           00043000
         AIF   (K'&DSTNAME EQ 0).DSTNM1                                 00044000
DSTNAME1 DC    C&DSTNAME                                                00045000
         DC    X'00'                                                    00046000
         AGO   .DSTNM2                                                  00047000
.DSTNM1  ANOP                                                           00048000
DSTNAME1 DC    X'00'                                                    00049000
.DSTNM2  ANOP                                                           00050000
         AIF   (K'&UCTNAME EQ 0).UCTNM1                                 00051000
UCTNAME  DC    C&UCTNAME                                                00052000
         DC    X'00'                                                    00053000
         AGO   .UCTNM2                                                  00054000
.UCTNM1  ANOP                                                           00055000
UCTNAME  DC    X'00'                                                    00056000
.UCTNM2  ANOP                                                           00057000
         MEND                                                           00058000
