         MACRO                                                          00002800
&NAME    CONVCHAR &IN=                                                  00005600
.********************* START OF SPECIFICATIONS *********************    00008400
.*                                                                      00011200
.* MACRO NAME: CONVCHAR                                                 00014000
.*                                                                      00016800
.* DESCRIPTIVE NAME:  CHARACTER CONVERSION                              00019600
.*                                                                      00022400
.* STATUS: ACF/VTAM VERSION 3 RELEASE 4                                 00025200
.*                                                                      00028000
.* COPYRIGHT:  LICENSED MATERIALS - PROPERTY OF IBM                     00033600
.*                                                                      00039200
.*             THIS PRODUCT CONTAINS "RESTRICTED MATERIALS OF IBM"      00042000
.*                                                                      00044800
.*             5685-085 (C) COPYRIGHT IBM CORP. 1988, 1991.             00045000
.*             ALL RIGHTS RESERVED.                                     00045200
.*                                                                      00045400
.*             U.S. GOVERNMENT USERS RESTRICTED RIGHTS -                00045600
.*             USE, DUPLICATION OR DISCLOSURE RESTRICTED BY             00045800
.*             GSA ADP SCHEDULE CONTRACT WITH IBM CORP.                 00046000
.*                                                                      00046200
.*             SEE COPYRIGHT INSTRUCTIONS.                              00046400
.*                                                                      00046600
.* MACRO USER'S GUIDE:                                                  00047600
.*                                                                      00050400
.*    FUNCTION:  This macro checks to see that the name contains upper  00053200
.*               or lower case letters or a $, @ or #.  If there are    00056000
.*               lower case letters, they are converted to upper case.  00058800
.*               CONVCHAR is used internally by MAPSESS.                00060200
.*                                                                      00061600
.*    MACRO FORMAT:                                                     00067200
.*                                                                      00070000
.*       CONVCHAR  IN=                                                  00072800
.*                                                                      00075600
.*    DESCRIPTION OF OPERANDS:                                          00078400
.*                                                                      00081200
.*       IN             Input name.                                     00093800
.*                                                                      00095200
.*    CODING EXAMPLES:                                                  00098000
.*                                                                      00100800
.*              CONVCHAR   IN=WILDC                                     00106400
.*                                                                      00109200
.*    RESTRICTIONS / DEPENDENCIES: NONE                                 00112000
.*                                                                      00114800
.*    OUTPUT:  Upper case letter or one of the following                00117600
.*             symbols: ($,@,#).                                        00120400
.*                                                                      00123200
.*  CHANGE ACTIVITY:                                                    00126000
.*                                                                      00128800
.*  $MAC(CONVCHAR),COMP(USER),PROD(VTAM): CHARACTER CONVERSION          00129700
.*                                                                      00130600
.*  FLAG REASON   RELEASE DATE   ORIGIN  FLAG DESCRIPTORS               00131600
.*  ---- -------- ------- ------ ------  ---------------------------    00134400
.*  $E0= ES3@@CLD JVT3204 880506 143586: OVERFLOW: SAW FILTER           00137200
.*  $P1= P060543  JVT3204 880922 765423: ADD ACTR INSTRUCTION           00138600
.*  $BB= ACC@@AMS HVT3401 891025 615520: PL/AS CONVERSION               00139300
.*                                                                      00140000
.*********************************************************************  00142800
.* This sub-macro assures that the name contains upper or lower case    00150000
.* characters or contains the 3 national characters $, @ and #.         00200000
.* When lower case characters are found they are converted              00250000
.* to upper case.                                                       00300000
.*                                                                      00350000
         GBLA  &CHARV                                                   00400000
         GBLC  &WILDC                                                   00450000
         LCLA  &X                                                       00500000
         LCLC  &LCASE                                                   00550000
         LCLC  &UCASE                                                   00600000
         LCLA  &CNV                                                     00650000
         LCLC  &C                                                       00700000
         LCLC  &CNVCHAR                                                 00750000
         ACTR  16777215                                            @P1A 00775000
&X       SETA  1                                                        00800000
&CHARV   SETA  0                                                        00850000
&UCASE   SETC  'ABCDEFGHIJKLMNOPQRSTUVWXYZ'                             00900000
&LCASE   SETC  'abcdefghijklmnopqrstuvwxyz'                             00950000
.*                                                                      01000000
.* Loop through all characters in the name,                             01050000
.* validate that only the characters ?, $, @, # are present and         01100000
.* the name contains only upper and lower case characters.              01150000
.*                                                                      01200000
.CHKCHR  ANOP                                                           01250000
         AIF   (&X GT 8).DONE     Exit if processing complete           01300000
         AIF   ('&IN'(&X,1) EQ ' ').CHROK   Assure only                 01350000
         AIF   ('&IN'(&X,1) EQ '?').CHROK    these characters           01400000
         AIF   ('&IN'(&X,1) EQ '$').CHROK     present in the            01450000
         AIF   ('&IN'(&X,1) EQ '@').CHROK      name                     01500000
         AIF   ('&IN'(&X,1) EQ '#').CHROK                               01550000
         AIF   ('&IN'(&X,1) GE 'a').CKNXC   Verify lower/upper case     01600000
.CHRINV  ANOP                                                           01650000
.*                                                                      01700000
.* Invalid character found, issue a message and terminate               01750000
.* macro processing                                                     01800000
.*                                                                      01850000
&C       SETC  '&IN'(&X,1)                                              01900000
         MNOTE 4,'Invalid character (&C.) found in text &IN.'           01950000
&CHARV   SETA  1                                                        02000000
         MEXIT                                                          02050000
.* Verify character is alphabetic or numeric                            02075000
.CKNXC   ANOP                                                           02100000
         AIF   (('&IN'(&X,1) GE 'a') AND ('&IN'(&X,1) LE 'i')).CONVERT  02118700
         AIF   (('&IN'(&X,1) GE 'j') AND ('&IN'(&X,1) LE 'r')).CONVERT  02137400
         AIF   (('&IN'(&X,1) GE 's') AND ('&IN'(&X,1) LE 'z')).CONVERT  02156100
         AIF   (('&IN'(&X,1) GE 'A') AND ('&IN'(&X,1) LE 'I')).CHROK    02174800
         AIF   (('&IN'(&X,1) GE 'J') AND ('&IN'(&X,1) LE 'R')).CHROK    02193500
         AIF   (('&IN'(&X,1) GE 'S') AND ('&IN'(&X,1) LE 'Z')).CHROK    02212200
         AIF   (('&IN'(&X,1) GE '0') AND ('&IN'(&X,1) LE '9')).VERNAME  02230900
         AGO   .CHRINV      Character is invalid                        02250000
.CHROK   ANOP                                                           02650000
.*                                                                      02700000
.* Valid character has been found                                       02750000
.*                                                                      02800000
&CNVCHAR SETC  '&CNVCHAR'.'&IN'(&X,1)  Build output name                02850000
&X       SETA  &X+1       Get next name character                       02900000
         AGO   .CHKCHR                                                  02950000
.*                                                                      03000000
.* Verify that the name does not start with a mumeric value             03050000
.*                                                                      03100000
.VERNAME ANOP                                                           03150000
         AIF   (&X NE 1).CHROK                                          03200000
.*                                                                      03250000
.* Name is invalid, fist character begins with a numeric                03300000
.* value                                                                03350000
.*                                                                      03400000
&C       SETC  '&IN'(&X,1)                                              03450000
         MNOTE 4,'Invalid name, numeric value found in text &IN.'       03500000
&CHARV   SETA  1                                                        03550000
         MEXIT                                                          03600000
.*                                                                      03650000
.* The following loop converts lower case characters to upper case      03700000
.* The converted name is built in 'CNVCHAR' and on exit the new         03750000
.* name is passed back to caller.                                       03800000
.*                                                                      03850000
.CONVERT ANOP                                                           03900000
&CNV     SETA  1                                                        03950000
.CNVLOOP ANOP                                                           04000000
.*                                                                      04050000
.* Locate the lower case character contained in the name                04100000
.*                                                                      04150000
         AIF   ('&IN'(&X,1) EQ '&LCASE'(&CNV,1)).SETCHAR                04200000
&CNV     SETA  &CNV+1                                                   04250000
         AGO   .CNVLOOP                                                 04300000
.SETCHAR ANOP                                                           04350000
.*                                                                      04400000
.* Convert the lower case character to upper case                       04450000
.*                                                                      04500000
&CNVCHAR SETC  '&CNVCHAR'.'&UCASE'(&CNV,1)                              04550000
&X       SETA  &X+1       Get next name character                       04600000
         AGO   .CHKCHR                                                  04650000
.DONE    ANOP                                                           04700000
&WILDC   SETC  '&CNVCHAR'  Pass back converted name to caller           04750000
         MEND                                                           04800000
