         MACRO                                                          00002800
&NAME    CONVWILD &IN=                                                  00005600
.********************* START OF SPECIFICATIONS *********************    00008400
.*                                                                      00011200
.* MACRO NAME: CONVWILD                                                 00014000
.*                                                                      00016800
.* DESCRIPTIVE NAME:  CONVERSION FOR WILD CARD CHARACTER NAME           00019600
.*                                                                      00022400
.* STATUS: ACF/VTAM VERSION 3 RELEASE 4                                 00025200
.*                                                                      00028000
.* COPYRIGHT:  LICENSED MATERIALS - PROPERTY OF IBM                     00033600
.*                                                                      00039200
.*             THIS PRODUCT CONTAINS "RESTRICTED MATERIALS OF IBM"      00042000
.*                                                                      00044800
.*             5685-085 (C) COPYRIGHT IBM CORP. 1988, 1991.             00045000
.*             ALL RIGHTS RESERVED.                                     00045200
.*                                                                      00045400
.*             U.S. GOVERNMENT USERS RESTRICTED RIGHTS -                00045600
.*             USE, DUPLICATION OR DISCLOSURE RESTRICTED BY             00045800
.*             GSA ADP SCHEDULE CONTRACT WITH IBM CORP.                 00046000
.*                                                                      00046200
.*             SEE COPYRIGHT INSTRUCTIONS.                              00046400
.*                                                                      00046600
.* MACRO USER'S GUIDE:                                                  00047600
.*                                                                      00050400
.*    FUNCTION:  This macro converts an eight byte name with wild       00053200
.*               card characters embedded to an eight byte field        00056000
.*               with characters and question marks.  A macro return    00058800
.*               code of 4 will be set when an asterisk is not the      00061600
.*               last non-blank character in the name.  CONVWILD is     00063400
.*               used internally by MAPSESS.                            00065200
.*                                                                      00067200
.*                                                                      00070000
.*    MACRO FORMAT:                                                     00072800
.*                                                                      00075600
.*        CONVWILD IN=                                                  00078400
.*                                                                      00081200
.*    DESCRIPTION OF OPERANDS:                                          00084000
.*                                                                      00086800
.*       IN             Input name.                                     00099400
.*                                                                      00100800
.*    CODING EXAMPLES:                                                  00103600
.*                                                                      00106400
.*              CONVWILD  IN=PRI                                        00109200
.*                                                                      00112000
.*    RESTRICTIONS / DEPENDENCIES: NONE                                 00114800
.*                                                                      00117600
.*    OUTPUT: NONE                                                      00120400
.*                                                                      00123200
.*                                                                      00126000
.*  CHANGE ACTIVITY:                                                    00128800
.*                                                                      00131600
.*  $MAC(CONVWILD),COMP(USER),PROD(VTAM): CONVERSION FOR WILD CARD      00132300
.*                                        CHARACTER NAME                00133000
.*                                                                      00133700
.*  FLAG REASON   RELEASE DATE   ORIGIN  FLAG DESCRIPTORS               00134400
.*  ---- -------- ------- ------ ------  ---------------------------    00137200
.*  $E0= ES3@@CLD JVT3204 880506 143586: OVERFLOW: SAW FILTER           00140000
.*  $P1= P060543  JVT3204 880922 765423: ADD ACTR INSTRUCTION           00141400
.*  $BB= ACC@@AMS HVT3401 891025 615520: PL/AS CONVERSION               00142100
.*                                                                      00142800
.*********************************************************************  00145600
.* This sub-macro validates and coverts a (possibly) wild carded        00150000
.* name into a name with only letters and question marks and            00200000
.* returns the value in WILDC                                           00250000
.*                                                                      00300000
         GBLC  &WILDC                                                   00350000
         LCLC  &TEMPC                                                   00400000
         LCLA  &I                                                       00450000
         ACTR  16777215                                            @P1A 00475000
&I       SETA  1                                                        00500000
&WILDC   SETC  '        '                                               00550000
.*                                                                      00600000
.* Loop through all characters in the name,                             00650000
.* there may be only one asterisk, and it must be at the                00700000
.* end.  If an asterisk is encountered, fill the rest of the            00750000
.* string with '?'.  If an asterisk is not encountered, then            00800000
.* fill the strings with blanks ' '.                                    00850000
.*                                                                      00900000
.WLDBLD  AIF   (&I GT K'&IN).FINE                                       00950000
         AIF   ('&IN'(&I,1) NE '*').WLDCOPY                             01000000
         AIF   (K'&IN LE &I).WLDFILL                                    01050000
         MNOTE 4,'An * is not allowed before text &IN.'                 01100000
&WILDC   SETC  '        '                                               01150000
         MEXIT                                                          01200000
.WLDFILL AIF   (&I GT 8).FINE                                           01250000
.*&WILDC(&I) SETC '?'                                                   01300000
         AIF   (&I EQ 8).WLDF8                                          01350000
&WILDC   SETC '&WILDC'(1,&I-1).'?'.'&WILDC'(&I+1,8-&I)                  01400000
        AGO   .WLDF8C                                                   01450000
.WLDF8   ANOP                                                           01500000
&WILDC   SETC '&WILDC'(1,&I-1).'?'                                      01550000
.WLDF8C  ANOP                                                           01600000
&I       SETA  &I+1                                                     01650000
         AGO   .WLDFILL                                                 01700000
.WLDCOPY ANOP                                                           01750000
.*&WILDC(&I) SETC '&IN(&I)'                                             01800000
         AIF   (&I EQ 8).WLDC8                                          01850000
&WILDC  SETC '&WILDC'(1,&I-1).'&IN'(&I,1).'&WILDC'(&I+1,8-&I)           01900000
        AGO   .WLDC8C                                                   01950000
.WLDC8   ANOP                                                           02000000
&WILDC  SETC '&WILDC'(1,&I-1).'&IN'(&I,1)                               02050000
.WLDC8C  ANOP                                                           02100000
&I       SETA  &I+1                                                     02150000
         AGO   .WLDBLD                                                  02200000
.FINE    MEND                                                           02250000
