          MACRO                                                         00050000
&NAME     COSTAB                                                        00100000
.************** START OF SPECIFICATIONS ******************************* 00150000
.*  MACRO NAME: COSTAB                                                * 00200000
.*                                                                    * 00216600
.*  STATUS: ACF/VTAM VERSION 3 RELEASE 4                              * 00233200
.*                                                                    * 00250000
.*  COPYRIGHT: LICENSED MATERIALS - PROPERTY OF IBM                   * 00300000
.*             THIS PRODUCT CONTAINS "RESTRICTED MATERIALS OF IBM"    * 00500000
.*                                                                    * 00550000
.*             5685-085 (C) COPYRIGHT IBM CORP. 1984, 1991.           * 00555000
.*             ALL RIGHTS RESERVED.                                   * 00560000
.*                                                                    * 00565000
.*             U.S. GOVERNMENT USERS RESTRICTED RIGHTS -              * 00570000
.*             USE, DUPLICATION OR DISCLOSURE RESTRICTED BY           * 00575000
.*             GSA ADP SCHEDULE CONTRACT WITH IBM CORP.               * 00580000
.*                                                                    * 00585000
.*             SEE COPYRIGHT INSTRUCTIONS.                            * 00590000
.*                                                                    * 00595000
.*  FUNCTION: TO PROVIDE A HEADER FOR THE CLASS OF SERVICE TABLE.     * 00600000
.*                                                                    * 00650000
.*  REGISTER USAGE: NONE.                                             * 00700000
.*                                                                    * 00750000
.*  MACRO NOTES: THE MACRO INVOCATION FOR COSTAB MUST HAVE A LABEL.   * 00800000
.*                                                                    * 00850000
.*  DATA-AREA: THE FOLLOWING GLOBAL MACRO VARIABLES ARE USED:         * 00900000
.*             &ERRCK   = INDICATES IF ERROR CONDITION ENCOUNTERED.   * 00950000
.*             &ENTRYCT = COUNTS THE NUMBER OF ENTRIES CREATED.       * 01000000
.*                                                                    * 01050000
.*  CONTROL BLOCKS: NONE.                                             * 01100000
.*                                                                    * 01150000
.*  INNER MACROS:   NONE.                                             * 01200000
.*                                                                    * 01250000
.*  CREATION DATE: 02/16/79                                  @G98BKMC * 01300000
.*                                                                    * 01350000
.*  CHANGE ACTIVITY:                                                  * 01358300
.*                                                                    * 01366600
.*     04/19/88  ADD COPYRIGHT INFORMATION                    @P055566* 01374900
.*                                                                    * 01383200
.* $MAC(COSTAB),COMP(USER),PROD(VTAM): START COS TABLE DEFINITION     * 01387300
.*                                                                    * 01391500
.* FLAG REASON   RELEASE DATE   ORIGIN  FLAG DESCRIPTORS              * 01393200
.* ---- -------- ------- ------ ------  ----------------              * 01394900
.* $BB= ACC@@AMS HVT3401 891025 615520: PL/AS CONVERSION              * 01396600
.* $01= OY42162  HVT3401 910520 575687: Set control block ID only     * 01397400
.*                                      when valid entries exist.     * 01398200
.*                                      COSEND will set the ID.       * 01399000
.************ END OF SPECIFICATIONS *********************************** 01400000
          GBLB  &ERRCK                                                  01450000
          GBLC  &NAMESAV                                                01500000
          GBLA  &ENTRYCT                                                01550000
          AIF   ('&NAME' NE '').OK                                      01600000
          MNOTE 8,'COSTAB MUST BE LABELED'                              01650000
          AGO   .COSEND                                                 01700000
.OK       ANOP                                                          01750000
&NAMESAV  SETC  '&NAME'                                                 01800000
          AIF   ('&ERRCK' EQ '0').COSHDR                                01850000
          MNOTE 0,'COSTAB MACRO ISSUED AGAIN - DISREGARDED'             01900000
          AGO   .COSEND                                                 01950000
.COSHDR   ANOP                                                          02000000
&NAME     CSECT                                                         02050000
          DC    X'00'                  CONTROL BLOCK ID SLOT      @01C  02100000
          DC    X'04'                  LENGTH OF THE HEADER             02150000
          DC    XL2'00'                NUMBER OF TABLE ENTRIES          02200000
&ENTRYCT  SETA  0                                                       02250000
&ERRCK    SETB  1                                                       02300000
.COSEND   ANOP                                                          02350000
          MEND                                                          02400000
