         MACRO                                                          00001000
&NAME    FILEIOHD &TYPE,                   Type definition             *00002000
               &BEGIN=,                    Handler Startup             *00003000
               &FINISH=,                   Handler Shutdown            *00004000
               &OPEN=,                     File Open Defintion         *00005000
               &CLOSE=,                    File Close Defintion        *00006000
               &READ=,                     File Read Defintion         *00007000
               &WRITE=0,                   File Write Defintion        *00008000
               &DELETE=0,                  File Delete Definition      *00009000
               &RENAME=0,                  File Rename Definition      *00010000
               &NOTE=0,                    File Note Defintion         *00011000
               &POINT=0,                   File Point Defintion        *00012000
               &OPDIR=0,                   Directory Open              *00013000
               &CLDIR=0,                   Directory Close             *00014000
               &CHDIR=0,                   Directory Change            *00015000
               &UPDIR=0,                   Directory Change to Parent  *00016000
               &RMDIR=0,                   Directory Remove            *00017000
               &MKDIR=0,                   Directory Make              *00018000
               &RDDIR=0,                   Directory Read Entry        *00019000
               &DEDIR=0,                   Directory Delete            *00020000
               &SCANDIR=0,                 Directory Scan              *00021000
               &SITE=0,                    Site Command                *00022000
               &RNDIR=0                    Directory Rename             00023000
         GBLB     &FHSECT                                               00024000
         GBLC     &IVBREG                                               00025000
*---------------------------------------------------------------------* 00026000
*        Copyright 1995 -- Connectivity Systems Incorporated          * 00027000
*---------------------------------------------------------------------* 00028000
.*-----------------------------------------*                            00029000
.*                                         *                            00030000
.*       File I/O Routine Header           *                            00031000
.*                                         *                            00032000
.*-----------------------------------------*                            00033000
         AIF      ('&TYPE' EQ 'DSECT').DEFDS                            00034000
         AIF      ('&TYPE' EQ 'DEFINE').DEFINE                          00035000
         MNOTE    8,'Unrecognized Request Type'                         00036000
         MEXIT                                                          00037000
.*-----------------------------------------*                            00038000
.*                                         *                            00039000
.*       Header Definition                 *                            00040000
.*                                         *                            00041000
.*-----------------------------------------*                            00042000
.DEFINE  ANOP                                                           00043000
&IVBREG  SETC     '10'                     IVBLOK register (BEGIN mac)  00044000
&NAME    CSECT                                                          00045000
         DC       CL8'&NAME'               File Routine Name            00046000
         DC       X'00'                    Flag Byte                    00047000
         DC       AL3(0)                   Reserved                     00048000
*                                                                       00049000
*        General I/O Handling Routines                                  00050000
*                                                                       00051000
         DC       A(&BEGIN)                Handler Startup              00052000
         DC       A(&FINISH)               Handler Shutdown             00053000
*                                                                       00054000
*        Fully Qualified File I/O Routines                              00055000
*                                                                       00056000
         DC       A(&OPEN)                 File Open                    00057000
         DC       A(&CLOSE)                File Close                   00058000
         DC       A(&READ)                 File Read                    00059000
         DC       A(&WRITE)                File Write                   00060000
         DC       A(&NOTE)                 File Note                    00061000
         DC       A(&POINT)                File Point                   00062000
*                                                                       00063000
*        Directory Management Routines                                  00064000
*                                                                       00065000
         DC       A(&OPDIR)                Directory Open               00066000
         DC       A(&CLDIR)                Directory Close              00067000
         DC       A(&RDDIR)                Directory Read an Entry      00068000
         DC       A(&CHDIR)                Directory Change             00069000
         DC       A(&UPDIR)                Directory Change to Parent   00070000
         DC       A(&RMDIR)                Directory Remove             00071000
         DC       A(&MKDIR)                Directory Make               00072000
         DC       A(&DEDIR)                Directory Delete             00073000
         DC       A(&RNDIR)                Directory Rename             00074000
*                                                                       00075000
         DC       A(&DELETE)               File Delete                  00076000
         DC       A(&RENAME)               File Rename                  00077000
         DC       A(&SCANDIR)              Directory Scan               00078000
         DC       A(&SITE)                 Site Command                 00079000
         MEXIT                                                          00080000
.*-----------------------------------------*                            00081000
.*                                         *                            00082000
.*       DSECT Defintion                   *                            00083000
.*                                         *                            00084000
.*-----------------------------------------*                            00085000
.DEFDS   ANOP                                                           00086000
         AIF      (&FHSECT).FHDONE                                      00087000
&FHSECT  SETB     1                                                     00088000
*------------------------------------------*                            00089000
*                                          *                            00090000
*        File I/O Routine Header           *                            00091000
*                                          *                            00092000
*------------------------------------------*                            00093000
FHBLOK   DSECT                                                          00094000
FHNAME   DS       CL8                      File Routine Name            00095000
FHFLAG   DS       X                        Flag Byte                    00096000
FHFLOPEN EQU      X'01'                    - File System Opened         00097000
         DS       CL3                      Reserved                     00098000
*                                                                       00099000
*        General I/O Handling Routines                                  00100000
*                                                                       00101000
FHBEGIN  DS       A                        Handler Startup              00102000
FHFINISH DS       A                        Handler Shutdown             00103000
*                                                                       00104000
*        Fully Qualified File I/O Routines                              00105000
*                                                                       00106000
FHOPEN   DS       A                        File Open                    00107000
FHCLOSE  DS       A                        File Close                   00108000
FHREAD   DS       A                        File Read                    00109000
FHWRITE  DS       A                        File Write                   00110000
FHNOTE   DS       A                        File Note                    00111000
FHPOINT  DS       A                        File Point                   00112000
*                                                                       00113000
*        Directory Management Routines                                  00114000
*                                                                       00115000
FHOPDIR  DS       A                        Directory Open               00116000
FHCLDIR  DS       A                        Directory Close              00117000
FHRDDIR  DS       A                        Directory Read an Entry      00118000
FHCHDIR  DS       A                        Directory Change             00119000
FHUPDIR  DS       A                        Directory Change to Parent   00120000
FHRMDIR  DS       A                        Directory Remove             00121000
FHMKDIR  DS       A                        Directory Make               00122000
FHDEDIR  DS       A                        Directory Delete             00123000
FHRNDIR  DS       A                        Directory Rename             00124000
*                                                                       00125000
*        More File I/O And Directory Management Routnes                 00126000
*                                                                       00127000
FHDELETE DS       A                        File Delete                  00128000
FHRENAME DS       A                        File Rename                  00129000
FHSCAND  DS       A                        Directory Scan               00130000
FHSITE   DS       A                        Site Command                 00131000
FHBLOKLN EQU      *-FHBLOK                                              00132000
.FHDONE  ANOP                                                           00133000
         MEND                                                           00134000
