         MACRO                                                          00000800
&NAME    FINDMASK &START=                                               00001600
.********************* START OF SPECIFICATIONS *********************    00002400
.*                                                                      00003200
.* MACRO NAME: FINDMASK                                                 00004000
.*                                                                      00004800
.* DESCRIPTIVE NAME:  FIND AN EXISTING MASK SET                         00005600
.*                                                                      00006400
.* STATUS: ACF/VTAM VERSION 3 RELEASE 4                                 00007200
.*                                                                      00008000
.* COPYRIGHT:  LICENSED MATERIALS - PROPERTY OF IBM                     00009600
.*                                                                      00011200
.*             THIS PRODUCT CONTAINS "RESTRICTED MATERIALS OF IBM"      00012000
.*                                                                      00012800
.*             5685-085 (C) COPYRIGHT IBM CORP. 1988, 1991.             00012900
.*             ALL RIGHTS RESERVED.                                     00013000
.*                                                                      00013100
.*             U.S. GOVERNMENT USERS RESTRICTED RIGHTS -                00013200
.*             USE, DUPLICATION OR DISCLOSURE RESTRICTED BY             00013300
.*             GSA ADP SCHEDULE CONTRACT WITH IBM CORP.                 00013400
.*                                                                      00013500
.*             SEE COPYRIGHT INSTRUCTIONS.                              00013600
.*                                                                      00013700
.* MACRO USER'S GUIDE:                                                  00013800
.*                                                                      00014400
.*    FUNCTION:  This macro finds an existing mask set.                 00015200
.*               Inputs are:                                            00016000
.*                 Index where we want to start search.                 00016800
.*                 Mapsess entry with mask we are trying to match.      00017600
.*               FINDMASK is used internally by MAPSESS.                00018000
.*                                                                      00018400
.*    MACRO FORMAT:                                                     00019200
.*                                                                      00020000
.*               FINDMASK  START=                                       00020800
.*                                                                      00021600
.*    DESCRIPTION OF OPERANDS:                                          00022400
.*                                                                      00023200
.*                                                                      00026400
.*       START          Index indicating place to begin search for      00026900
.*                      matching mask set.                              00027400
.*                                                                      00028000
.*    CODING EXAMPLES:                                                  00029600
.*                                                                      00030400
.*              FINDMASK  START=MAPMSKS(I)                              00031200
.*                                                                      00032000
.*    RESTRICTIONS / DEPENDENCIES: NONE                                 00032800
.*                                                                      00033600
.*    OUTPUT:  One of the following outputs:                            00034400
.*               Mapsess entry with an index to a new mask.             00035200
.*               Macro return code of 8 will be set if the              00036000
.*                 number of masks generated exceeds maximum            00036800
.*                 value set as a global.                               00037600
.*                                                                      00038400
.*  CHANGE ACTIVITY:                                                    00039200
.*                                                                      00040000
.*  $MAC(FINDMASK),COMP(USER),PROD(VTAM): FIND AN EXISTING MASK SET     00040300
.*                                                                      00040600
.*  FLAG REASON   RELEASE DATE   ORIGIN  FLAG DESCRIPTORS               00040800
.*  ---- -------- ------- ------ ------  ---------------------------    00041600
.*  $E0= ES3@@CLD JVT3204 880505 143586: OVERFLOW: SAW FILTER           00042400
.*  $P1= P060543  JVT3204 880922 765423: ADD ACTR INSTRUCTION           00042800
.*  $P2= P062441  JVT3204 881108 232661: USE HARD CODE OF MAPGBL        00043000
.*  $BB= ACC@@AMS HVT3401 891025 615520: PL/AS CONVERSION               00043100
.*                                                                      00043200
.*********************************************************************  00044000
.*                                                                      00150000
.* Searches for a matching mask set starting with the START index,      00200000
.* if found, increment the mask count, and set the current MAPSESS      00250000
.* mask index to point to this mask.  If not found, then create a       00300000
.* new mask set                                                         00350000
.*                                                                      00400000
         GBLA  &MAPDMAX                                            @P2A 00411100
         GBLA  &MAPMAX                                             @P2A 00422200
         GBLA  &MSKMAX                                             @P2A 00433300
         GBLA  &MSKDMAX                                            @P2A 00444400
         GBLA  &MAPMSKS(2000)                                      @P2A 00455500
         GBLA  &MSKMCNT(2000)                                      @P2A 00466600
         GBLB  &MAPFNDA                                            @P2A 00477700
         GBLB  &MAPUSE(2000)                                       @P2A 00488800
         GBLB  &OKFINE                                                  00500000
         GBLC  &MAPNAME(2000)                                      @P2A 00507100
         GBLC  &MAPSAW(2000)                                       @P2A 00514200
         GBLC  &MAPKEEP(2000)                                      @P2A 00521300
         GBLC  &MAPMASK(2000)                                      @P2A 00528400
         GBLC  &MAPPS(2000)                                        @P2A 00535500
         GBLC  &MSKMASK(2000)                                      @P2A 00542600
         LCLA  &I                                                       00550000
         ACTR  16777215                                            @P1A 00558300
&MAPDMAX SETA  2000                                                     00566600
&MSKDMAX SETA  2000                                                     00583200
.*                                                                      00600000
&OKFINE  SETB  1                                                        00650000
.*       MNOTE *,'START=&START'                                         00700000
&I       SETA  &START                                                   00750000
         AIF   (&MSKMAX EQ 0).NEWMASK                                   00800000
.GENBLD  AIF   (&I GT &MSKDMAX).TOOMMSK                                 00850000
         AIF   (&I GT &MSKMAX).NEWMASK                                  00900000
.*                                                                      00950000
         AIF   ('&MSKMASK(&I)' NE '&MAPMASK(&MAPMAX)').GENNXT           01000000
.*       MNOTE *,'OLD MSK ENTRY=&MSKMAX'                                01050000
.*       MNOTE *,'MAPMSKS(&MAPMAX)=&MAPMSKS(&MAPMAX)'                   01100000
&MAPMSKS(&MAPMAX) SETA  &I                                              01150000
&MSKMCNT(&I) SETA &MSKMCNT(&I)+1                                        01200000
.*       MNOTE *,'OLD MSK ENTRY=&MSKMAX'                                01250000
.*       MNOTE *,'MSKMASK(&I)=&MSKMASK(&I)'                             01300000
.*       MNOTE *,'MAPMSKS(&MAPMAX)=&MAPMSKS(&MAPMAX)'                   01350000
         MEXIT                                                          01400000
.GENNXT  ANOP                                                           01450000
&I       SETA  &I+1                                                     01500000
         AGO   .GENBLD                                                  01550000
.*                                                                      01600000
.NEWMASK ANOP                                                           01650000
&MSKMAX  SETA  &I                                                       01700000
&MSKMASK(&MSKMAX) SETC '&MAPMASK(&MAPMAX)'                              01750000
&MAPMSKS(&MAPMAX) SETA  &I                                              01800000
&MSKMCNT(&MSKMAX) SETA  1                                               01850000
.*       MNOTE *,'NEW MSK ENTRY=&MSKMAX'                                01900000
.*       MNOTE *,'MAPMASK(&MAPMAX)=&MAPMASK(&MAPMAX)'                   01950000
.*       MNOTE *,'MAPMSKS(&MAPMAX)=&MAPMSKS(&MAPMAX)'                   02000000
         AGO   .FINE                                                    02050000
.*                                                                      02100000
.TOOMMSK ANOP                                                           02150000
&OKFINE  SETB  0                                                        02200000
         MNOTE 8,'Too many masks defined MAX=&MSKDMAX.'                 02250000
.*                                                                      02300000
.FINE    MEND                                                           02350000
