         MACRO                                                          00037500
&NAME    GENCHK &NEW=,&OLD=                                             00075000
.********************* START OF SPECIFICATIONS *********************    00112500
.*                                                                      00150000
.* MACRO NAME: GENCHK                                                   00151000
.*                                                                      00152000
.* DESCRIPTIVE NAME:  CHECK NEW TO OLD ENTRY FOR GENERALIZATION         00153000
.*                                                                      00154000
.* STATUS: ACF/VTAM VERSION 3 RELEASE 4                                 00155000
.*                                                                      00156000
.* COPYRIGHT:  LICENSED MATERIALS - PROPERTY OF IBM                     00158000
.*                                                                      00160000
.*             THIS PRODUCT CONTAINS "RESTRICTED MATERIALS OF IBM"      00161000
.*                                                                      00162000
.*             5685-085 (C) COPYRIGHT IBM CORP. 1988, 1991.             00162100
.*             ALL RIGHTS RESERVED.                                     00162200
.*                                                                      00162300
.*             U.S. GOVERNMENT USERS RESTRICTED RIGHTS -                00162400
.*             USE, DUPLICATION OR DISCLOSURE RESTRICTED BY             00162500
.*             GSA ADP SCHEDULE CONTRACT WITH IBM CORP.                 00162600
.*                                                                      00162700
.*             SEE COPYRIGHT INSTRUCTIONS.                              00162800
.*                                                                      00162900
.* MACRO USER'S GUIDE:                                                  00163000
.*                                                                      00164000
.*    FUNCTION:  This macro checks to see if the new entry is more      00165000
.*               general than the old entry. GENCHK is used internally  00165600
.*               by MAPSESS.                                            00166200
.*                                                                      00167000
.*                                                                      00168000
.*    MACRO FORMAT:                                                     00169000
.*                                                                      00170000
.*       GENCHK  NEW= , OLD=                                            00171000
.*                                                                      00172000
.*    DESCRIPTION OF OPERANDS:                                          00173000
.*                                                                      00174000
.*       NEW            New mask entry                                  00178500
.*                                                                      00179000
.*       OLD            Old mask entry                                  00179300
.*                                                                      00179600
.*    CODING EXAMPLES:                                                  00180000
.*                                                                      00181000
.*                                                                      00182000
.*              GENCHK  NEW=MAPMAX,OLD=I                                00183000
.*                                                                      00184000
.*    RESTRICTIONS / DEPENDENCIES: NONE                                 00185000
.*                                                                      00186000
.*    OUTPUT:                                                           00187000
.*                                                                      00188000
.*                                                                      00189000
.*  CHANGE ACTIVITY:                                                    00190000
.*                                                                      00191000
.*  $MAC(GENCHK),COMP(USER),PROD(VTAM): CHECK NEW TO OLD ENTRY FOR      00191200
.*                                      GENERALIZATION                  00191400
.*                                                                      00191600
.*  FLAG REASON   RELEASE DATE   ORIGIN  FLAG DESCRIPTORS               00192000
.*  ---- -------- ------- ------ ------  ---------------------------    00193000
.*  $E0= ES3@@CLD JVT3204 880506 143586: OVERFLOW: SAW FILTER           00194000
.*  $P1= P060543  JVT3204 880922 765423: ADD ACTR INSTRUCTION           00194500
.*  $P2= P062441  JVT3204 881108 232661: USE HARD CODE OF MAPGBL        00194700
.*  $BB= ACC@@AMS HVT3401 891025 615520: PL/AS CONVERSION               00194800
.*  $T1= P103483  NQNAME1 920831 410106: NQN SUPPORT FOR SAW FILTER     00194900
.*                                                                      00195000
.*********************************************************************  00196000
.*                                                                      00197000
.* Checks if NEW is more general than OLD, by comparing mask            00200000
.* set values.  It is more general if the FFs in NEW are                00250000
.* a subset of the FFs in the OLD.                                      00300000
.*                                                                      00350000
         GBLA  &MAPDMAX                                            @P2A 00361100
         GBLA  &MAPMAX                                             @P2A 00372200
         GBLA  &MSKMAX                                             @P2A 00383300
         GBLA  &MSKDMAX                                            @P2A 00394400
         GBLA  &MAPMSKS(2000)                                      @P2A 00405500
         GBLA  &MSKMCNT(2000)                                      @P2A 00416600
         GBLB  &MAPFNDA                                            @P2A 00427700
         GBLB  &MAPUSE(2000)                                       @P2A 00438800
         GBLB  &MOREGEN                                                 00450000
         GBLB  &FINDUPE                                                 00475000
         GBLC  &MAPNAME(2000)                                      @P2A 00478500
         GBLC  &MAPSAW(2000)                                       @P2A 00482000
         GBLC  &MAPKEEP(2000)                                      @P2A 00485500
         GBLC  &MAPMASK(2000)                                      @P2A 00489000
         GBLC  &MAPPS(2000)                                        @P2A 00492500
         GBLC  &MSKMASK(2000)                                      @P2A 00496000
         LCLA  &I                                                       00500000
         LCLA  &X                                                       00525000
         ACTR  16777215                                            @P1A 00529100
&MAPDMAX SETA  2000                                                     00533300
&MSKDMAX SETA  2000                                                     00541600
&I       SETA  1                                                        00550000
&MOREGEN SETB  1                                                        00600000
&FINDUPE SETB  0                                                        00787200
.GENBLD  AIF   (&I GT 32).FINE                                     @T1C 00800000
         AIF   ('&MAPMASK(&OLD)'(&I*2,1) NE 'F').GENNXT                 00850000
      AIF ('&MAPNAME(&OLD)'(&I,1) EQ '&MAPNAME(&NEW)'(&I,1)).GENNXT     00900000
&MOREGEN SETB  0                                                        00950000
         MEXIT                                                          01000000
.GENNXT  ANOP                                                           01050000
&I       SETA  &I+1                                                     01100000
         AGO   .GENBLD                                                  01150000
.*                                                                      01200000
.*                                                                      01250000
.FINE    MEND                                                           01300000
