         MACRO                                                          00050000
&NAME    IHBRDWRA  &RPL=,&IHBRW=,&ACB=,&AREA=,&AREALEN=,&RECLEN=,      *00100000
               &AAREA=,&AAREALN=,&ARECLEN=,&ECB=,&EXIT=,&CODESEL=,     *00150000
               &OPTCD=,&ARG=,&NIB=,&BRANCH=,&OBSQVAL=,&SIGDATA=,       *00200000
               &RESPOND=,&CONTROL=,&CHNGDIR=,&SSENSEO=,&STYPE=,        *00250000
               &SEQNO=,&USENSEO=,&IBSQVAL=,&RTYPE=,&IBSQAC=,&SSENSMO=, *00300000
               &OBSQAC=,&POST=,&CHAIN=,&OPTION=,&SCANOPT=,&BRACKET=,   *00350000
               &CRYPT=,&THRDPTY=,&SONCODE=,&PSTIMER=                    00400000
.* /***** START OF SPECIFICATIONS ************************************/ 00450000
.* /*                                                                */ 00500000
.* /*  MACRO NAME: IHBRDWRA                                          */ 00550000
.* /*                                                                */ 00600000
.* /*  DESCRIPTIVE NAME: INNER INTERFACE MACRO FOR API REQUEST       */ 00650000
.* /*                    MACROS                                      */ 00700000
.* /*                                                                */ 00750000
.* /*  COPYRIGHT = LICENSED MATERIALS - PROPERTY OF IBM              */ 00800000
.* /*                                                                */ 01000000
.* /*              THIS PRODUCT CONTAINS                             */ 01008300
.* /*              "RESTRICTED MATERIALS OF IBM"                     */ 01016600
.* /*                                                                */ 01024900
.* /*              5686-065 (C) COPYRIGHT IBM CORP 1979, 1994.       */ 01033200
.* /*              ALL RIGHTS RESERVED.                              */ 01041500
.* /*                                                                */ 01049800
.* /*              U.S. GOVERNMENT USERS RESTRICTED RIGHTS -         */ 01058100
.* /*              USE, DUPLICATION OR DISCLOSURE RESTRICTED         */ 01066400
.* /*              BY GSA ADP SCHEDULE CONTRACT WITH IBM CORP.       */ 01074700
.* /*                                                                */ 01083000
.* /*              SEE COPYRIGHT INSTRUCTIONS.                       */ 01091300
.* /*                                                                */ 01100000
.* /*  FUNCTION: GENERATES IN-LINE CODE FOR THE FOLLOWING API        */ 01150000
.* /*            REQUEST MACROS THAT USE AN RPL:  CLSDST,            */ 01200000
.* /*            INQUIRE, INTRPRET, OPNDST, OPNSEC, RECEIVE,         */ 01250000
.* /*            REQSESS, RESETSR, SEND, SESSIONC, SETLOGON,         */ 01300000
.* /*            SIMLOGON, AND TERMSESS.  THE GENERATED              */ 01350000
.* /*            CODE LOADS THE RPL ADDRESS INTO REGISTER 1,         */ 01400000
.* /*            MODIFIES RPL FIELDS AS INDICATED BY THE RPL         */ 01450000
.* /*            MODIFIERS ON THE REQUEST MACRO, LOADS A             */ 01500000
.* /*            REQUEST CODE INTO REGISTER ZERO, AND BRANCHES       */ 01550000
.* /*            TO THE INTERFACE ROUTINE WHOSE ADDRESS IS IN        */ 01600000
.* /*            THE ACB LOCATED VIA THE RPL.  ANY CODE TO           */ 01650000
.* /*            MODIFY THE RPL IS BYPASSED IF THE RPL IS            */ 01700000
.* /*            ALREADY ACTIVE.                                     */ 01750000
.* /*                                                                */ 01800000
.* /*  NOTES: NONE                                                   */ 01850000
.* /*                                                                */ 02000000
.* /*  PROCESSOR: ASSEMBLER                                          */ 02050000
.* /*                                                                */ 02100000
.* /*  CREATED BY: MACRO DEVELOPMENT TEAM                            */ 02150000
.* /*                                                                */ 02200000
.* /*  INTERNAL MACROS: NONE                                         */ 02250000
.* /*                                                                */ 02300000
.* /*  EXTERNAL REFERENCES: NONE                                     */ 02350000
.* /*                                                                */ 02400000
.* /*  CHANGE ACTIVITY:                                              */ 02450000
.* /*  CHANGE 01 - 01/19/77 - ADDED QUEUED RESPONSE SUPPORT  @D34EKMP*/ 02500000
.* /*  CHANGE 02 - 02/16/77 - ADDED CONTROL SBI/BIS SUPPORT  @D34EKMP*/ 02550000
.* /*  CHANGE 03 - 04/27/77 - CORRECTED CONTROL SDT SUPPORT  @PI10125*/ 02600000
.* /*  CHANGE 04 - 05/25/77 - CORRECTED RPL SIGDATA SUPPORT  @VS45960*/ 02650000
.* /*  CHANGE 05 - 10/26/77 - CORRECTED INQ SESSKEY SUPPORT  @XM30862*/ 02700000
.* /*  CHANGE 06 - 04/12/78 - ADDED THRDPTY NOTIFY  SUPPORT  @D17AKMP*/ 02750000
.* /*  CHANGE 07 - 05/22/81 - DCR 4747.06                    @D5B4747*/ 02800000
.* /*  CHANGE 08 - 09/24/81 - SYSROUTE OF APAR ZA46611       @AD46611*/ 02850000
.* /*  CHANGE 09 - 09/24/81 - DCR 4790.03                    @D479003*/ 02900000
.* /*  CHANGE 10 - 01/12/82 - PTM P010128                    @P5X0128*/ 02950000
.* /*  CHANGE 11 - 11/22/82 - PTM P011983 DY30663 MNOTE      @DA30663*/ 03000000
.* /*  CHANGE 12 - 02/15/84 - DCR 4912.08 DOS/761            @R491208*/ 03025000
.* /*  CHANGE 13 - 04/21/87 - DCR 5070.01 DOS/777 - COPIED THE MVS   */ 03028500
.* /*                         INTEGRATION DEL TO THE DOS DEVELOPMENT */ 03032000
.* /*                         DEL, KEEPING THE DOS RPL OFFSETS, AND  */ 03035500
.* /*                         REMOVING THE SUPPORT FOR CRYPTO AND    */ 03039000
.* /*                         BRANCH. (SEE MVS VERSION PROLOGUE FOR  */ 03042500
.* /*                         FICHE FLAG DESCRIPTIONS)       @R507001*/ 03046000
.* /*  CHANGE 14 - 07/14/87 - APAR OY06517 - OPTSCAN NOT CHECKING    */ 03047300
.* /*                         FOR NULLS IN PARAMETERS PASSED @OY06517*/ 03048600
.* /*                                                                */ 03050000
.* /* $MAC(IHBRDWRA),COMP(API),PROD(VTAM): Inner interface macro for */ 03056200
.* /*                                      API requests              */ 03062400
.* /*                                                                */ 03068600
.* /* FLAG REASON   RELEASE DATE   ORIGIN  FLAG DESCRIPTORS          */ 03074800
.* /* ---- -------- ------- ------ ------- ------------------------  */ 03081000
.* /* $G1= MS@@@MST VSE3300 890606 551204: VSE UNIQUE                */ 03087200
.* /* $H1= ZP@@@MST VSE3400 901106 601407: VSE PL/AS CONVERSION      */ 03089200
.* /*                                      COMMENT CHANGES ONLY      */ 03091200
.* /* $01= OY36649  VM340   911014 349122: QUEUED SESSION TERMINATION*/ 03092300
.* /* $H2= VS@@@MST VSE/ESA 930412 879315: VSE 4.3 STARTUP           */ 03092800
.* /* $02= OY62380  SNAIP   930421 879315: Allow CHNGDIR=NREQ to be  */ 03092900
.* /*                                      specified though ignored  */ 03093000
.* /*                                      (still issued by CICS)    */ 03093100
.* /* $U2= P110087  GENRES  930908 879315: Downward compatibility    */ 03093200
.* /* $03= OY67066  VSE/ESA 940628 677775: ADD SUPPORT FOR INQUIRE   */ 03094900
.* /*                                      OPTCD=STATUS (AE FIX FOR  */ 03096600
.* /*                                      OY63087)                  */ 03098300
.* /* $W1= P117054  VMVSCS  941202 879315: Conditional CS mode       */ 03099100
.* /***** END OF SPECIFICATIONS **************************************/ 03100000
.*                                                                      03150000
.* A-000000-999999                                           @XL03HMV   03200000
.*                                                                      03250000
* IHBRDWRA - ACF/VTAM -- VSE/ESA                                        03300000
*                                                                       03350000
* COPYRIGHT = LICENSED MATERIALS - PROPERTY OF IBM                      03364200
*                                                                       03378400
*             THIS PRODUCT CONTAINS                                     03392600
*             "RESTRICTED MATERIALS OF IBM"                             03406800
*                                                                       03421000
*             5686-065 (C) COPYRIGHT IBM CORP 1979, 1994.               03435200
*             ALL RIGHTS RESERVED.                                      03449400
*                                                                       03463600
*             U.S. GOVERNMENT USERS RESTRICTED RIGHTS -                 03477800
*             USE, DUPLICATION OR DISCLOSURE RESTRICTED                 03492000
*             BY GSA ADP SCHEDULE CONTRACT WITH IBM CORP.               03506200
*                                                                       03520400
*             SEE COPYRIGHT INSTRUCTIONS.                               03534600
*                                                                       03550000
         GBLB  &IHBRPLY(20)                                             03600000
         GBLC  &IHBTBL(20)                                              03650000
         GBLA  &IHBNUM                                                  03700000
         LCLA  &PLARG,&PLNIB,&PLAREA,&PLRLEN,&PLBUFL,&PLACTIV,&PLEXTDS  03750000
         LCLA  &PLOPTC1,&PLDACB,&PLECB,&PLAAREA,&PLAARLN,&PLARCLN       03800000
         LCLA  &ACBRTN,&SYN,&ASY,&POPTCD2,&POPTCD3,&OPTERR,&PLSSMO      03850000
         LCLA  &NUM,&LEN,&CNTINQ,&MSK1CTR,&MSK2CTR,&MSK3CTR,&MSK4CTR    03900000
         LCLA  &CNTSTL,&PLUSFLD                                    @H2A 03916600
         LCLA  &PLOPT4                                             @H2A 03933200
.* *************** VTL ADDITIONS ****************                       03950000
         LCLA  &NM,&NUM2,&PLRH3,&PLSRTYP,&PLVTFL2,&PLCHN,&PLCNTRL       04000000
         LCLA  &PLCNTDF,&PLCNTSC,&PLOBSQV,&PLIBSQV,&PLOBSQ,&PLIBSQ      04050000
         LCLA  &PLSEQNO,&PLSSNSO,&PLUSNSO,&PLCNTDC,&PLSSEO,&PLSIGDA     04100000
         LCLA  &SCODE                                          @R491100 04125000
.* ************ END VTL ADDITIONS ***************                       04150000
         LCLB  &CA,&CS,&PASS,&RELEASE,&NERASE,&EAU,&ERASE,&NOTIFY       04183300
         LCLB  &SPEC,&ANY,&LBT,&LBM,&BLK,&COND,&UNCOND             @W1C 04233300
         LCLB  &LOCK,&ACCEPT,&ACQUIRE,&QUIESCE,&START,&STOP             04300000
         LCLB  &CONALL,&CONANY,&Q,&NQ,&LGONMSG,&DEVCHAR,&TERMS,&APPSTAT 04350000
         LCLB  &COUNTS,&RNNAME,&CIDXLAT,&TOPLGON,&BSCID,&DISPLAY        04400000
         LCLB  &RELRQ,&NRELRQ,&UNCONDL,&ACTIVE,&SESSION,&PEND           04450000
         LCLB  &BIT0,&BIT01,&SPARM,&SPARM1,&SKEY                        04500000
         LCLB  &NBUFLST,&BUFFLST,&CONTCHN,&NCNTCHN             @D5B4747 04550000
         LCLB  &NLMPEO,&LMPEO,&USERRH,&NUSERRH                 @D5B4747 04600000
         LCLB  &USERVAR                                        @R489318 04606200
         LCLB  &SONCD,&NSONCD,&UNBIND,&SENSE,&NSENSE,&HOLD     @R491100 04612500
         LCLB  &RSPQUE,&NRSPQU                                 @R491101 04625000
         LCLB  &MTS,&NMTS                                          @G1A 04631200
         LCLB  &TERMQ                                              @01A 04634300
         LCLB  &STATUS                                             @03A 04642100
.* *************** VTL ADDITIONS ****************                       04650000
         LCLB  &KEEP,&TRUNC,&NIBTK                                      04700000
         LCLB  &FMHDR,&NFMHDR                                           04750000
         LCLB  &KEEP1,&TRUNC1,&NIBTK1,&FMHDR1                           04800000
         LCLC  &OPT1,&OPT,&CHAR1,&CHAR2,&CHAR3,&CHAR4                   04900000
         LCLC  &OPT4X                                              @H2A 04925000
.* ************ END VTL ADDITIONS ***************                       04950000
  LCLB  &CS1,&PASS1,&NERASE1,&EAU1,&ERASE1,&NOTIFY1                     05000000
  LCLB  &ANY1,&LBT1,&LBM1,&BLK1,&COND1,&UNCOND1                    @W1C 05050000
  LCLB  &LOCK1,&ACCEPT1,&ACQUIR1,&QUIESC1,&START1,&STOP1                05100000
  LCLB  &CONALL1,&CONANY1,&NQ1,&LGONMS1,&DEVCHR1,&TERMS1,&APSTAT1       05150000
  LCLB  &COUNTS1,&RNNAME1,&CIDXLT1,&TOPLGN1,&BSCID1,&DISPLY1            05200000
  LCLB  &NRELRQ1,&UNCNDL1,&ACTIVE1,&SESION1,&PEND1,&SKEY1      @XM30862 05250000
  LCLB  &BUFLST1,&CNTCHN1,&LMPEO1,&USERRH1                     @D5B4747 05300000
  LCLB  &USRVAR1                                               @R489318 05304100
  LCLB  &SONCD1,&NSONCD1,&UNBIND1,&SENSE1,&NSENSE1,&HOLD1      @R491100 05308300
  LCLB  &RSPQUE1,&NRSPQU1                                      @R491101 05316600
  LCLB  &MTS1                                                      @G1A 05320700
  LCLB  &TERMQ1                                                    @01A 05322800
  LCLB  &QSESS,&QALL,&QNOTE                                    @R504800 05333200
  LCLB  &QSESS1,&QNOTE1,&QALL1                                 @R504800 05341500
  LCLB  &CONDCS,&CONDCS1                                           @W1A 05342900
  LCLB  &CSSPEC,&CONDCSS                                           @W1A 05344300
  LCLB  &PERSIQ,&PERST,&NPERST,&RESTOR,&PSTIME,&NQN                @H2A 05345700
  LCLB  &STATUS1                                                   @04A 05347800
.* ********** DISPLACEMENT OF RPL FIELDS **********                     05350000
&PLARG   SETA  8     * VSE *                                            05391100
&PLAREA  SETA  12    * VSE *                                            05432200
&PLRLEN  SETA  16    * VSE *                                            05473300
&PLBUFL  SETA  20    * VSE *                                            05514400
&SCODE   SETA  28    * VSE DISPLACEMENT INTO RPL TO SONCODE *  @R491208 05555500
&PLEXTDS SETA  34    * VSE *                                            05596600
&PLOPTC1 SETA  32    * VSE *                                            05637700
&PLOPT4  SETA  35    * VSE VTAM DISPLACEMENT *                     @H2A 05678800
&POPTCD2 SETA  64    * VSE *                                            05719900
&POPTCD3 SETA  68    * VSE *                                            05761000
&PLDACB  SETA  24    * VSE *                                            05802100
&PLECB   SETA  44    * VSE *                                            05843200
&PLAAREA SETA  40    * VSE *                                            05884300
&PLAARLN SETA  48    * VSE *                                            05925400
&PLARCLN SETA  52    * VSE *                                            05966500
&PLUSFLD SETA  60    * VSE VTAM DISPLACEMENT *                     @H2A 06007600
.* *************** VTL ADDITIONS ****************                       06050000
&PLRH3    SETA  72   * VSE *             THIRD RH BYTE                  06100000
&PLSRTYP  SETA  73   * VSE *             SEND OR RECEIVE TYPE FIELD     06150000
&PLVTFL2  SETA  75   * VSE *             VTAM FLAGS FIELD               06200000
&PLCHN    SETA  76   * VSE *             POSITION IN RU CHAIN FIELD     06250000
&PLCNTRL  SETA  77   * VSE *             RU CONTROL CODE FIELD          06300000
&PLCNTDF  SETA  77   * VSE *             DATA FLOW CONTROL CODES FIELD  06350000
&PLCNTDC  SETA  78   * VSE *             DATA FLOW CONTROL CODES FIELD  06400000
&PLCNTSC  SETA  79   * VSE *             SESSION CONTROL CODES FIELD    06450000
&PLOBSQV  SETA  80   * VSE *             STSN OUTBOUND SEQ. NO. FIELD   06500000
&PLIBSQV  SETA  82   * VSE *             STSN INBOUND SEQ. NO. FIELD    06550000
&PLOBSQ   SETA  84   * VSE *             STSN OUTBOUND ACTION CODES     06600000
&PLIBSQ   SETA  85   * VSE *             STSN INBOUND ACTION CODES      06650000
&PLSEQNO  SETA  86   * VSE *             SEQUENCE NUMBER FIELD          06700000
&PLSSNSO  SETA  88   * VSE *             SYSTEM SENSE OUTPUT FIELD      06750000
&PLSSEO   SETA  88   * VSE *             SYSTEM SENSE ERROR CODES       06800000
&PLSSMO   SETA  89   * VSE *             SYSTEM SENSE ERROR CODES       06850000
&PLUSNSO  SETA  90   * VSE *             USER SENSE OUTPUT FIELD        06900000
&PLACTIV  SETA  92   * VSE *             RPL ACTIVE BYTE                06950000
&PLSIGDA  SETA  96   * VSE *             SIGNAL DATA FOUR BYTES         07000000
.* ************ END VTL ADDITIONS ***************                       07050000
&ASY     SETA  00                                                       07100000
&SYN     SETA  00                                                       07150000
&BIT0    SETB  0                                                        07200000
&CNTINQ  SETA  0                                                        07250000
&CNTSTL  SETA  0                                                   @H2A 07275000
&MSK1CTR SETA  0                                                        07300000
&MSK2CTR SETA  0                                                        07350000
&MSK3CTR SETA  0                                                        07400000
&MSK4CTR SETA  0                                                        07450000
&OPTERR  SETA  0                                                        07500000
&CA      SETB  0                                                        07550000
&CS      SETB  0                                                        07600000
&PASS    SETB  0                                                        07650000
&RELEASE SETB  0                                                        07700000
&NERASE  SETB  0                                                        07750000
&EAU     SETB  0                                                        07800000
&ERASE   SETB  0                                                        07850000
&SPEC    SETB  0                                                        07900000
&ANY     SETB  0                                                        07950000
&BLK     SETB  0                                                        08100000
&LBM     SETB  0                                                        08150000
&LBT     SETB  0                                                        08200000
&COND    SETB  0                                                        08250000
&UNCOND  SETB  0                                                        08300000
&LOCK    SETB  0                                                        08350000
&ACCEPT  SETB  0                                                        08400000
&ACQUIRE SETB  0                                                        08450000
&CONALL  SETB  0                                                        08500000
&CONANY  SETB  0                                                        08550000
&QUIESCE SETB  0                                                        08600000
&START   SETB  0                                                        08650000
&STOP    SETB  0                                                        08700000
&LGONMSG SETB  0                                                        08750000
&DEVCHAR SETB  0                                                        08800000
&TERMS   SETB  0                                                        08850000
&APPSTAT SETB  0                                                        08900000
&COUNTS  SETB  0                                                        08950000
&RNNAME  SETB  0                                                        09000000
&CIDXLAT SETB  0                                                        09050000
&TOPLGON SETB  0                                                        09100000
&BSCID   SETB  0                                                        09150000
&DISPLAY SETB  0                                                        09200000
&SPARM   SETB  0                                                        09250000
&SKEY    SETB  0                                                        09300000
&Q       SETB  0                                                        09350000
&NQ      SETB  0                                                        09400000
&RELRQ   SETB  0                                                        09450000
&NRELRQ  SETB  0                                                        09500000
&PEND    SETB  0                                                        09550000
&SESSION SETB  0                                                        09600000
&ACTIVE  SETB  0                                                        09650000
&UNCONDL SETB  0                                                        09700000
&NOTIFY  SETB  0                                                        09725000
&NBUFLST SETB  0                                               @D5B4747 09750000
&BUFFLST SETB  0                                               @D5B4747 09800000
&CONTCHN SETB  0                                               @D5B4747 09850000
&NCNTCHN SETB  0                                               @D5B4747 09900000
&NLMPEO  SETB  0                                               @D5B4747 09950000
&LMPEO   SETB  0                                               @D5B4747 10000000
&USERRH  SETB  0                                               @D5B4747 10050000
&NUSERRH SETB  0                                               @D5B4747 10100000
&USERVAR SETB  0                                               @R489318 10101900
&SONCD   SETB  0                                               @R491100 10103800
&NSONCD  SETB  0                                               @R491100 10107600
&UNBIND  SETB  0                                               @R491100 10111400
&SENSE   SETB  0                                               @R491100 10115200
&NSENSE  SETB  0                                               @R491100 10119000
&HOLD    SETB  0                                               @R491100 10122800
&RSPQUE  SETB  0                                               @R491101 10126600
&NRSPQU  SETB  0                                               @R491101 10130400
&QSESS   SETB  0                                               @R504800 10138000
&QNOTE   SETB  0                                               @R504800 10141800
&QALL    SETB  0                                               @R504800 10145600
&MTS     SETB  0                                                   @G1A 10147000
&NMTS    SETB  0                                                   @G1A 10148400
&TERMQ   SETB  0                                                   @01A 10149200
&PERSIQ  SETB  0                                                   @H2A 10149300
&PERST   SETB  0                                                   @H2A 10149400
&NPERST  SETB  0                                                   @H2A 10149500
&RESTOR  SETB  0                                                   @H2A 10149600
&PSTIME  SETB  0                                                   @H2A 10149700
&CONDCS  SETB  0                                                   @W1A 10156800
&CSSPEC  SETB  0                                                   @W1A 10163900
&CONDCSS SETB  0                                                   @W1A 10171000
&NQN     SETB  0                                                   @H2A 10178100
&STATUS  SETB  0                                                   @03A 10185200
.* *************** VTL ADDITIONS ****************                       10192300
&KEEP    SETB  0                                                        10200000
&TRUNC   SETB  0                                                        10250000
&NIBTK   SETB  0                                                        10300000
&FMHDR   SETB  0                                                        10350000
&NFMHDR  SETB  0                                                        10400000
&KEEP1      SETB  1                                                     10500000
&TRUNC1     SETB  1                                                     10550000
&NIBTK1     SETB  1                                                     10600000
&FMHDR1     SETB  1                                                     10650000
.* ************ END VTL ADDITIONS ***************                       10750000
&BIT01      SETB  1                                                     10800000
&CS1        SETB  1                                                     10850000
&PASS1      SETB  1                                                     10900000
&NERASE1    SETB  1                                                     10950000
&EAU1       SETB  1                                                     11000000
&ERASE1     SETB  1                                                     11050000
&ANY1       SETB  1                                                     11100000
&LBT1       SETB  1                                                     11200000
&LBM1       SETB  1                                                     11250000
&BLK1       SETB  1                                                     11300000
&COND1      SETB  1                                                     11350000
&UNCOND1    SETB  1                                                     11400000
&LOCK1      SETB  1                                                     11450000
&ACCEPT1    SETB  1                                                     11500000
&ACQUIR1    SETB  1                                                     11550000
&CONALL1    SETB  1                                                     11600000
&CONANY1    SETB  1                                                     11650000
&QUIESC1    SETB  1                                                     11700000
&START1     SETB  1                                                     11750000
&STOP1      SETB  1                                                     11800000
&LGONMS1    SETB  1                                                     11850000
&DEVCHR1    SETB  1                                                     11900000
&TERMS1     SETB  1                                                     11950000
&APSTAT1    SETB  1                                                     12000000
&COUNTS1    SETB  1                                                     12050000
&RNNAME1    SETB  1                                                     12100000
&CIDXLT1    SETB  1                                                     12150000
&TOPLGN1    SETB  1                                                     12200000
&BSCID1     SETB  1                                                     12250000
&DISPLY1    SETB  1                                                     12300000
&SPARM1     SETB  1                                                     12350000
&SKEY1      SETB  1                                          @XM30862   12400000
&NQ1        SETB  1                                                     12450000
&NRELRQ1    SETB  1                                                     12500000
&PEND1      SETB  1                                                     12550000
&SESION1    SETB  1                                                     12600000
&ACTIVE1    SETB  1                                                     12650000
&UNCNDL1    SETB  1                                                     12700000
&NOTIFY1    SETB  1                                                     12725000
&BUFLST1    SETB  1                                            @D5B4747 12750000
&CNTCHN1    SETB  1                                            @D5B4747 12800000
&LMPEO1     SETB  1                                            @D5B4747 12850000
&USERRH1    SETB  1                                            @D5B4747 12900000
&USRVAR1    SETB  1                                            @R489318 12905000
&SONCD1     SETB  1                                            @R491100 12910000
&NSONCD1    SETB  1                                            @R491100 12915000
&UNBIND1    SETB  1                                            @R491100 12920000
&SENSE1     SETB  1                                            @R491100 12930000
&NSENSE1    SETB  1                                            @R491100 12935000
&HOLD1      SETB  1                                            @R491100 12937500
&RSPQUE1    SETB  1                                            @R491101 12940000
&NRSPQU1    SETB  1                                            @R491101 12945000
&QSESS1     SETB  1                                            @R504800 12947000
&QNOTE1     SETB  1                                            @R504800 12948000
&QALL1      SETB  1                                            @R504800 12949000
&MTS1       SETB  1                                                @G1A 12949500
&TERMQ1     SETB  1                                                @01A 12949700
&STATUS1    SETB  1                                                @03A 12949800
&CONDCS1    SETB  1                                                @W1A 12949900
&ACBRTN  SETA  8   DISPLACEMENT IN ACB OF THE ADDR OF THE INTERFACE RTN 12950000
&OPT4X   SETC 'X''00'''             INITIALIZE OPT4X VALUE         @H2A 12975000
         AIF   ('&SCANOPT' NE '').OPTSCAN  RECURSIVE CALL TO OPTSCAN?   13000000
         AIF   ('&RPL' EQ '').NORPL  THIS IS AN ERROR CONDITION         13050000
.* ******************************************************************** 13100000
.*                        GETRPL SUBROUTINE                             13150000
.* GENERATES CODE TO LOAD THE ADDRESS OF THE RPL INTO REGISTER 1        13200000
.* ******************************************************************** 13250000