         MACRO                                                          00001000
&NAME    IPREADY &TASK=,                                               *00002000
               &PART=,                                                 *00003000
               &COND=,                                                 *00004000
               &PU=,                                                   *00005000
               &CBFADR=,                                               *00006000
               &RETURN=,                                               *00007000
               &CODE=,                                                 *00008000
               &VER=IVSSVERS                                            00009000
.*--------------------------------------------------------------------* 00010000
.*                                                                    * 00011000
.*       IPREADY  Macro -- Combine VSE/ESA TREADY and VSE/SP TREADY   * 00012000
.*                                                                    * 00013000
.*--------------------------------------------------------------------* 00014000
.*       Copyright 1996 -- Connectivity Systems Incorporated          * 00015000
.*--------------------------------------------------------------------* 00016000
.*                                                                    * 00017000
.*       This macro is a required combination of the TREADY macros    * 00018000
.*       provided in VSE/SP and VSE/ESA. This macro is a derivative   * 00019000
.*       work of these two macros. The original code is considered:   * 00020000
.*                                                                    * 00021000
.*       LICENSED MATERIALS - PROGRAM PROPERTY OF IBM                 * 00022000
.*       THIS MACRO IS "RESTRICTED MATERIALS OF IBM"                  * 00023000
.*       5686-032 (C) COPYRIGHT IBM CORP. 1979, 1990                  * 00024000
.*                                                                    * 00025000
.*       therefore, this macro can only be used when combined with    * 00026000
.*       a valid IBM license for product number: 5686-032-06-C55      * 00027000
.*                                                                    * 00028000
.*--------------------------------------------------------------------* 00029000
         LCLA     &FC                                                   00030000
         AIF   (T'&CBFADR EQ 'O').NOCBF                                 00031000
         AIF   ('&COND' EQ 'OCCFIO').NOCBF                              00032000
         MNOTE 8,'CBFADR OPERAND ILLEGAL FOR COND = &COND'     @D51GDGL 00033000
         MEXIT                                                          00034000
.NOCBF   ANOP                                                           00035000
         AIF   (T'&RETURN EQ 'O').LEGRET                                00036000
         AIF   ('&COND' EQ 'IO').TSTRET                                 00037000
         AIF   ('&COND' EQ 'VTAM').TSTRET                               00038000
         AIF   ('&COND' NE 'POWER').ILLRET                              00039000
.TSTRET  ANOP                                                           00040000
         AIF   ('&RETURN' EQ 'YES').LEGRET                              00041000
         AIF   ('&RETURN' EQ 'NO').LEGRET                               00042000
         MNOTE 8,'RETURN = &RETURN NOT PERMITTED'              @D51RMGL 00043000
         MEXIT                                                          00044000
.ILLRET  ANOP                                                           00045000
         MNOTE 8,'RETURN OPERAND ILLEGAL FOR COND = &COND'     @D51RMGL 00046000
         MEXIT                                                          00047000
.LEGRET  ANOP                                                           00048000
         AIF   ('&COND' NE 'CANCEL').CHCONDO                            00049000
         AIF   (T'&CODE EQ 'O').NOTE01                                  00050000
         AIF   ('&CODE' EQ '(0)').NOTE02                                00051000
         AIF   (T'&PART EQ 'O').CHKFC04                                 00052000
         AIF   (T'&TASK EQ 'O').SETFC15                                 00053000
         AGO   .NOTE03                                                  00054000
.CHKFC04 ANOP                                                           00055000
         AIF   (T'&TASK EQ 'O').NOTE04                                  00056000
         AGO   .SETFC04                                                 00057000
.CHCONDO ANOP                                                           00058000
         AIF   (T'&COND NE 'O').CHCONDL                                 00059000
         AIF   (T'&CODE EQ 'O').CHKFC13                                 00060000
.WNOTE01 ANOP                                                           00061000
         MNOTE 1,'CODE OPERAND IGNORED FOR COND = OMITTED'     @D36IDWK 00062000
.CHKFC13 ANOP                                                           00063000
         AIF   (T'&PART EQ 'O').CHKFC02                                 00064000
         AIF   (T'&TASK EQ 'O').SETFC13                                 00065000
         AGO   .NOTE03                                                  00066000
.CHKFC02 ANOP                                                           00067000
         AIF   (T'&TASK EQ 'O').NOTE09                                  00068000
         AGO   .SETFC02                                                 00069000
.CHCONDL ANOP                                                           00070000
         AIF   ('&COND' NE 'LQ').CHVCAN                                 00071000
&FC      SETA  0                                                        00072000
         AGO   .CHTASK                                                  00073000
.CHVCAN  ANOP                                                           00074000
         AIF   ('&COND' NE 'VCANCEL').CHOCCF                            00075000
&FC      SETA  5                                                        00076000
         AGO   .CHTASK                                                  00077000
.CHOCCF  ANOP                                                           00078000
         AIF   ('&COND' NE 'OCCF').CHCRTS                               00079000
&FC      SETA  54                                                       00080000
         AGO   .CHTASK                                                  00081000
.CHCRTS  ANOP                                                           00082000
         AIF   ('&COND' NE 'CRTSAV').CHHCFC                             00083000
&FC      SETA  57                                                       00084000
         AGO   .CHTASK                                                  00085000
.CHHCFC  ANOP                                                           00086000
         AIF   ('&COND' NE 'HCFCB').CHATIN                              00087000
&FC      SETA  58                                                       00088000
         AGO   .CHTASK                                                  00089000
.CHATIN  ANOP                                                           00090000
         AIF   ('&COND' NE 'ATTINT').CHALCR                             00091000
&FC      SETA  59                                                       00092000
         AGO   .CHTASK                                                  00093000
.CHALCR  ANOP                                                           00094000
         AIF   ('&COND' NE 'ALLOCR').CHRSGT                             00095000
&FC      SETA  95                                                       00096000
         AGO   .CHTASK                                                  00097000
.CHRSGT  ANOP                                                           00098000
         AIF   ('&COND' NE 'RSGT').CHOCNCL                              00099000
&FC      SETA  96                                                       00100000
         AGO   .CHTASK                                                  00101000
.CHOCNCL ANOP                                                           00102000
         AIF   ('&COND' NE 'OCANCEL').CHKOTH                            00103000
&FC      SETA  107                                                      00104000
.CHTASK  ANOP                                                           00105000
         AIF   (T'&TASK EQ 'O').CODEIGN                                 00106000
.WNOTE02 ANOP                                                           00107000
         MNOTE 1,'TASK OPERAND IGNORED FOR COND = &COND '               00108000
.CODEIGN ANOP                                                           00109000
         AIF   (T'&CODE EQ 'O').PARTINV                                 00110000
.WNOTE03 ANOP                                                           00111000
         MNOTE 1,'CODE OPERAND IGNORED FOR COND = &COND '               00112000
.PARTINV ANOP                                                           00113000
         AIF   (T'&PART NE 'O').NOTE05                                  00114000
         AIF   (T'&NAME EQ 'O').GENFC                                   00115000
&NAME    DC    0H'0'                                           @D37CDWK 00116000
         AGO   .GENFC                                                   00117000
.CHKOTH  ANOP                                                           00118000
         AIF   ('&COND' EQ 'NO').CHKTASK                                00119000
         AIF   ('&COND' EQ 'IO').CHKTASK                                00120000
         AIF   ('&COND' EQ 'VTAM').CHKTASK                              00121000
         AIF   ('&COND' EQ 'ICCF').CHKTASK                              00122000
         AIF   ('&COND' EQ 'OCCFIO').CHKTASK                            00123000
         AIF   ('&COND' EQ 'START').CHKPART                             00124000
         AIF   ('&COND' EQ 'OC').CHKPART                                00125000
         AIF   ('&COND' EQ 'POWER').CHKTASK                             00126000
         AGO   .NOTE06                                                  00127000
.CHKTASK ANOP                                                           00128000
         AIF   (T'&TASK EQ 'O').NOTE07                                  00129000
         AIF   (T'&PART EQ 'O').CHCODE                                  00130000
         AGO   .NOTE03                                                  00131000
.CHKPART ANOP                                                           00132000
         AIF   (T'&PART EQ 'O').NOTE08                                  00133000
         AIF   (T'&TASK NE 'O').NOTE03                                  00134000
.CHCODE  ANOP                                                           00135000
         AIF   (T'&CODE EQ 'O').CHPU                                    00136000
.WNOTE04 ANOP                                                           00137000
         MNOTE 1,'CODE OPERAND IGNORED FOR COND = &COND '               00138000
.CHPU    ANOP                                                           00139000
         AIF   ('&COND' NE 'POWER').CHPUOM                              00140000
         AIF   (T'&PU NE 'O').SETFC77                                   00141000
         AGO   .NOTE10                                                  00142000
.CHPUOM  ANOP                                                           00143000
         AIF   (T'&PU EQ 'O').CHCOND                                    00144000
.WNOTE05 ANOP                                                           00145000
         MNOTE 1,'PU OPERAND IGNORED FOR COND = &COND '        @D14BDWK 00146000
.CHCOND  ANOP                                                           00147000
         AIF   ('&COND' EQ 'NO').SETFC01                                00148000
         AIF   ('&COND' EQ 'IO').SETFC02                                00149000
         AIF   ('&COND' EQ 'VTAM').SETFC03                              00150000
         AIF   ('&COND' EQ 'ICCF').SETFC29                              00151000
         AIF   ('&COND' EQ 'START').SETFC13                             00152000
         AIF   ('&COND' EQ 'OCCFIO').SETFC60                            00153000
         AGO   .SETFC14                                                 00154000
.NOTE01  ANOP                                                           00155000
         MNOTE 8,'CODE-OPERAND REQUIRED FOR COND=CANCEL '               00156000
         MEXIT                                                          00157000
.NOTE02  ANOP                                                           00158000
         MNOTE 8,'REGISTER 0 MUST NOT BE USED FOR THE CODE OPERAND '    00159000
         MEXIT                                                          00160000
.NOTE03  ANOP                                                           00161000
         MNOTE 8,'TASK- AND PART-OPERAND SPECIFICATION INVALID'         00162000
         MEXIT                                                          00163000
.NOTE04  ANOP                                                           00164000
         MNOTE 8,'TASK- OR PART- OPERAND REQUIRED FOR COND= &COND '     00165000
         MEXIT                                                          00166000
.NOTE05  ANOP                                                           00167000
         MNOTE 8,'PART-OPERAND MUST NOT BE SPECIFIED FOR COND= &COND '  00168000
         MEXIT                                                          00169000
.NOTE06  ANOP                                                           00170000
         MNOTE 8,'UNKNOWN COND-OPERAND COND= &COND SPECIFIED '          00171000
         MEXIT                                                          00172000
.NOTE07  ANOP                                                           00173000
         MNOTE 8,'TASK OPERAND REQUIRED FOR COND= &COND'                00174000
         MEXIT                                                          00175000
.NOTE08  ANOP                                                           00176000
         MNOTE 8,'PART OPERAND REQUIRED FOR COND= &COND'                00177000
         MEXIT                                                          00178000
.NOTE09  ANOP                                                           00179000
         MNOTE 8,'PART OPERAND REQUIRED FOR DEFAULT COND = START OR'    00180000
         MNOTE 'TASK OPERAND REQUIRED FOR DEFAULT COND = IO '           00181000
         MEXIT                                                          00182000
.NOTE10  ANOP                                                           00183000
         MNOTE 8,'PU OPERAND REQUIRED FOR COND= &COND'         @D14BDWK 00184000
         MEXIT                                                          00185000
.NOTE11  ANOP                                                           00186000
         MNOTE 8,'REGISTER 1 MUST NOT BE USED FOR THE TASK OPERAND '    00187000
         MEXIT                                                          00188000
.SETFC01 ANOP                                                           00189000
&FC      SETA  1                                                        00190000
         AGO   .CHKLBL                                                  00191000
.SETFC02 ANOP                                                           00192000
&FC      SETA  2                                                        00193000
         AGO   .CHKLBL                                                  00194000
.SETFC03 ANOP                                                           00195000
&FC      SETA  3                                                        00196000
         AGO   .CHKLBL                                                  00197000
.SETFC04 ANOP                                                           00198000
&FC      SETA  4                                                        00199000
         AGO   .CHKLBL                                                  00200000
.SETFC13 ANOP                                                           00201000
&FC      SETA  19                                                       00202000
         AGO   .CHKLBL                                                  00203000
.SETFC14 ANOP                                                           00204000
&FC      SETA  20                                                       00205000
         AGO   .CHKLBL                                                  00206000
.SETFC15 ANOP                                                           00207000
&FC      SETA  21                                                       00208000
         AGO   .CHKLBL                                                  00209000
.SETFC29 ANOP                                                           00210000
&FC      SETA  41                                                       00211000
         AGO   .CHKLBL                                                  00212000
.SETFC60 ANOP                                                           00213000
&FC      SETA  60                                                       00214000
         AGO   .CHKLBL                                                  00215000
.SETFC77 ANOP                                                           00216000
&FC      SETA  77                                                       00217000
.CHKLBL  ANOP                                                           00218000
         AIF   (T'&NAME EQ 'O').NOLBL                                   00219000
&NAME    DC    0H'0'                                           @D36IDWK 00220000
.NOLBL   ANOP                                                           00221000
         AIF   (&FC EQ 77).SETPU                                        00222000
         AIF   (&FC GT 21).SETTASK                                      00223000
         AIF   (&FC GT 5).SETPART                                       00224000
         AGO   .SETTASK                                                 00225000
.SETPU   ANOP                                                           00226000
         AIF   ('&TASK' EQ '(1)').NOTE11                                00227000
         AIF   ('&PU'(1,1) EQ '(').RPU                                  00228000
         LH    1,&PU                          PUB INDEX        @D14BDWK 00229000
         AGO   .SETTASK                                                 00230000
.RPU     ANOP                                                           00231000
         AIF   ('&PU' EQ '(1)').SETTASK                                 00232000
         LR    1,&PU(1)                       PUB INDEX        @D14BDWK 00233000
.SETTASK ANOP                                                           00234000
         AIF   ('&TASK'(1,1) EQ '(').RTASK                              00235000
         LH    0,&TASK                        LOAD TASK ID              00236000
         AGO   .CHKFC                                                   00237000
.RTASK   ANOP                                                           00238000
         AIF   ('&TASK' EQ '(0)').CHKFC                                 00239000
         LR    0,&TASK(1)                     LOAD TASK ID              00240000
         AGO   .CHKFC                                                   00241000
.SETPART ANOP                                                           00242000
         AIF   ('&PART'(1,1) EQ '(').RPART                              00243000
         LH    0,&PART                        LOAD PART ID     @D36IDWK 00244000
         AGO   .CHKFC                                                   00245000
.RPART   ANOP                                                           00246000
         AIF   ('&PART' EQ '(0)').CHKFC                                 00247000
         LR    0,&PART(1)                     LOAD PART ID     @D36IDWK 00248000
.CHKFC   ANOP                                                           00249000
         AIF   (&FC NE 4 AND &FC NE 21).CHCBF                           00250000
         AIF   ('&CODE' EQ '(1)').GENFC                                 00251000
         AIF   ('&CODE'(1,1) EQ '(').RCODE                              00252000
         SLR   1,1                            CLEAR REGISTER ONE AND    00253000
         IC    1,&CODE                        INSERT CANCEL CODE        00254000
         AGO   .GENFC                                                   00255000
.RCODE   ANOP                                                           00256000
         LR    1,&CODE(1)                     LOAD CANCEL CODE          00257000
.CHCBF   ANOP                                                           00258000
         AIF   (&FC NE 60).GENFC                                        00259000
         AIF   (T'&CBFADR EQ 'O').CHCBF2                                00260000
         AIF   ('&CBFADR' EQ '(1)').GENFC                               00261000
         AIF   ('&CBFADR'(1,1) EQ '(').CHCBF1                           00262000
         L     1,&CBFADR                                       @D51GDGL 00263000
         AGO   .GENFC                                                   00264000
.CHCBF1  ANOP                                                           00265000
         LR    1,&CBFADR(1)                                    @D51GDGL 00266000
         AGO   .GENFC                                                   00267000
.CHCBF2  ANOP                                                           00268000
         SLR   1,1                                             @D51GDGL 00269000
.GENFC   ANOP                                                           00270000
         AIF   ('&RETURN' NE 'YES').NORET                               00271000
         CLI      &VER,5                   Is this Version 5?           00272000
         BNL      X&SYSNDX                 Yes, then process with it    00273000
         LA    15,&FC.(,0)                   SET FUNCTION CODE @D14ZDWK 00274000
         SVC   107                           HANDLE REQUEST             00275000
         B        D&SYSNDX                 Skip to the end              00276000
X&SYSNDX ICM   15,15,*+8                                       @D51RMGL 00277000
         B     *+8                                             @D51RMGL 00278000
         DC    X'80',AL3(&FC)                                  @D51RMGL 00279000
         SVC   107                           HANDLE REQUEST    @D51RMGL 00280000
D&SYSNDX DS       0H                                                    00281000
         MEXIT                                                          00282000
.NORET   ANOP                                                           00283000
         LA    15,&FC.(,0)                   SET FUNCTION CODE @D14ZDWK 00284000
         SVC   107                           HANDLE REQUEST             00285000
         MEND                                                           00286000
