          MACRO                                                         00050000
&NAME     MODEEND                                                       00100000
.********************* START OF SPECIFICATIONS *********************    00101400
.*                                                                      00102800
.* MACRO NAME(S): MODEEND                                               00104200
.*                                                                      00105600
.* DESCRIPTIVE NAME:  Define end of logon mode table macro.             00107000
.*                                                                      00108400
.* STATUS: ACF/VTAM VERSION 3 RELEASE 4                                 00109800
.*                                                                      00111200
.* COPYRIGHT:  LICENSED MATERIALS - PROPERTY OF IBM                     00112600
.*                                                                      00114000
.*             THIS PRODUCT CONTAINS "RESTRICTED MATERIALS OF IBM"      00114400
.*                                                                      00114800
.*             5685-085 (C) COPYRIGHT IBM CORP. 1984, 1991.             00114900
.*             ALL RIGHTS RESERVED.                                     00115000
.*                                                                      00115100
.*             U.S. GOVERNMENT USERS RESTRICTED RIGHTS -                00115200
.*             USE, DUPLICATION OR DISCLOSURE RESTRICTED BY             00115300
.*             GSA ADP SCHEDULE CONTRACT WITH IBM CORP.                 00115400
.*                                                                      00115500
.*             SEE COPYRIGHT INSTRUCTIONS.                              00115600
.*                                                                      00115700
.* MACRO USER'S GUIDE:                                                  00115800
.*                                                                      00116800
.*    FUNCTION: This macro is used to declare the end of a logon mode   00118200
.*              table.  It is to be invoked after all the entries have  00119600
.*              been made in the table.                                 00121000
.*                                                                      00122400
.*    MACRO FORMAT:                                                     00123800
.*                                                                      00125200
.*       <label> MODEEND                                                00126600
.*                                                                      00128000
.*    DESCRIPTION OF OPERANDS:                                          00129400
.*                                                                      00130800
.*       label          Optional label associated with the macro        00132200
.*                      invocation statement.                           00133600
.*                                                                      00135000
.*    RESTRICTIONS / DEPENDENCIES: NONE                                 00136400
.*                                                                      00137800
.*       To satisfy user requirement RKDH199, we must require a         00137900
.*       MODEEND macro.  To do this, MODETAB generates a reference      00138000
.*       to label XXXXXXXX.  MODEEND must generate this label.  If      00138100
.*       the customer accidently omits the MODEEND macro, the forward   00138200
.*       reference to XXXXXXXX will fail since the label will not       00138300
.*       be generated.                                                  00138400
.*                                                                      00138500
.*    OUTPUT: THE ENTRY LENGTH AND THE NUMBER OF ENTRIES FIELD IN       00138700
.*            TABLE HEADER GENERATED BY MODETAB ARE ALSO UPDATED.       00139600
.*                                                                      00140600
.*    NOTES: NONE                                                       00142000
.*                                                                      00143400
.*    CHANGE ACTIVITY:                                                  00144100
.*                                                                      00144800
.*       01/21/88  Generate label XXXXXXXX to satisfy                   00145000
.*                 requirement RKDH199.  Change the MNOTE to            00145200
.*                 set a return code of 8 since ISTINCSH,               00145400
.*                 which searches Logmode tables, needs both            00145600
.*                 the entry count and the entry length.       @P053217 00145800
.*       02/12/88  Change XXXXXXXX label. VM has multiple               00145900
.*                 MODETABs within ISTINCLM.                   @P053700 00146000
.*       04/19/88  Add copyright information.                  @P055566 00158500
.*                                                                      00171000
.*  $MAC(MODEEND),COMP(USER),PROD(VTAM): End logon mode table           00172500
.*                                                                      00174000
.*  FLAG REASON   RELEASE DATE   ORIGIN  FLAG DESCRIPTORS               00175500
.*  ---- -------- ------- ------ ------  ----------------------------   00177000
.*  $01= OY24201  HVT3303 890823 042852: SET LOCATION COUNTER TO END    00178500
.*                                       OF MODTAB AFTER LABEL FILLED   00180000
.*                                                                      00181500
.********************** END OF SPECIFICATIONS **********************    00183500
         GBLB  &ERRCK                     1 = MODETAB ENCOUNTERED       00196200
         GBLA  &ENTRYCT                   NUMBER OF MODEENT MACROS      00246200
         GBLA  &TABCT                     NUMBER OF MODETAB MACROS      00296200
         AIF   ('&ERRCK' EQ '1').MODEEND                                00346200
         MNOTE 8,'MODETAB MACRO NEVER ISSUED - NO COUNT'       @P053217 00396200
         AGO   .MODEND                                                  00446200
.MODEEND ANOP                                                           00496200
XX&TABCT EQU   *                                                   @01M 00521200
         ORG   (M&TABCT)                  BACKUP TO LENGTH FIELD        00546200
         DC    AL1(LE&TABCT)              ENTRY LENGTH                  00596200
         DC    AL2(&ENTRYCT)              NUMBER OF ENTRIES             00646200
         ORG   XX&TABCT                                            @01C 00696200
.MODEND  ANOP                                                           00746200
&ENTRYCT SETA  0                          RESET ENTRY COUNT             00796200
&ERRCK   SETB  0                                                        00846200
         MEND                                                           00896200
