          MACRO                                                         00050000
&NAME     MODETAB   &FORMAT                                             00100000
.********************* START OF SPECIFICATIONS *********************    00101400
.*                                                                      00102800
.* MACRO NAME(S): MODETAB                                               00104200
.*                                                                      00105600
.* DESCRIPTIVE NAME:  Define beginning of a logon mode table.           00107000
.*                                                                      00108400
.* STATUS: ACF/VTAM VERSION 3 RELEASE 4                                 00109800
.*                                                                      00111200
.* COPYRIGHT:  LICENSED MATERIALS - PROPERTY OF IBM                     00112600
.*                                                                      00114000
.*             THIS PRODUCT CONTAINS "RESTRICTED MATERIALS OF IBM"      00114400
.*                                                                      00114800
.*             5685-085 (C) COPYRIGHT IBM CORP. 1984, 1991.             00114900
.*             ALL RIGHTS RESERVED.                                     00115000
.*                                                                      00115100
.*             U.S. GOVERNMENT USERS RESTRICTED RIGHTS -                00115200
.*             USE, DUPLICATION OR DISCLOSURE RESTRICTED BY             00115300
.*             GSA ADP SCHEDULE CONTRACT WITH IBM CORP.                 00115400
.*                                                                      00115500
.*             SEE COPYRIGHT INSTRUCTIONS.                              00115600
.*                                                                      00115700
.* MACRO USER'S GUIDE:                                                  00115800
.*                                                                      00116800
.*    FUNCTION: This macro is used to declare the beginning of a logon  00118200
.*              mode table.  This macro must be invoked before any      00119600
.*              entries can be made in the table.                       00121000
.*                                                                      00122400
.*    MACRO FORMAT:                                                     00123800
.*                                                                      00125200
.*       <label> MODETAB                                                00126600
.*                                                                      00128000
.*    DESCRIPTION OF OPERANDS:                                          00129400
.*                                                                      00130800
.*       label          Optional label associated with the macro        00132200
.*                      invocation statement.                           00133600
.*                                                                      00135000
.*       FORMAT         Keyword no longer valid. Ignored.               00135400
.*                                                                      00135800
.*    RESTRICTIONS / DEPENDENCIES:                                      00136400
.*                                                                      00137800
.*       To satisfy user requirement RKDH199, we must require a         00137900
.*       MODEEND macro.  To do this, MODETAB generates a reference      00138000
.*       to label XXXXXXXX.  MODEEND must generate this label.  If      00138100
.*       the customer accidently omits the MODEEND macro, the forward   00138200
.*       reference to XXXXXXXX will fail since the label will not       00138300
.*       be generated.                                                  00138400
.*                                                                      00138500
.*                                                                      00138600
.*    OUTPUT: The beginning of the logon mode table is declared.        00139200
.*                                                                      00140600
.*    NOTES: Refer to the VTAM Customization Manual for more infor-     00142000
.*           mation on declaring logmode tables.                        00143400
.*                                                                      00144800
.*    CHANGE ACTIVITY:                                                  00145500
.*                                                                      00146200
.*       01/21/88  Generate label XXXXXXXX to satisfy                   00146400
.*                 requirement RKDH199.  Change the MNOTE to            00146600
.*                 set a return code of 8 since ISTINCSH,               00146800
.*                 which searches Logmode tables, needs both            00147000
.*                 the entry count and the entry length.       @P053217 00147200
.*       02/12/88  Change XXXXXXXX label. VM has multiple               00147300
.*                 MODETABs within ISTINCLM.                   @P053700 00147400
.*       04/19/88  Added copyright information.                @P055566 00159900
.*                                                                      00172400
.*  $MAC(MODETAB),COMP(USER),PROD(VTAM): START LOGMODE TABLE DEFINITION 00174600
.*                                                                      00176900
.*  FLAG REASON   RELEASE DATE   ORIGIN  FLAG DESCRIPTORS               00178400
.*  ---- -------- ------- ------ ------  ----------------               00179900
.*  $BB= ACC@@AMS HVT3401 891025 615520: PL/AS CONVERSION               00181400
.*                                                                      00182900
.********************** END OF SPECIFICATIONS **********************    00184900
         GBLB  &ERRCK        1 = MODETAB MACRO ENCOUNTERED              00197600
         GBLA  &ENTRYCT      NUMBER OF MODEENT MACROS                   00247600
         GBLA  &TABCT        NUMBER OF MODETAB MACROS                   00297600
         AIF   ('&ERRCK' EQ '0').MODEHDR                                00347600
         MNOTE 0,'MODETAB MACRO ISSUED AGAIN - DISREGARDED'             00397600
         AGO   .MODEND                                                  00447600
.MODEHDR ANOP                                                           00497600
         AIF   ('&FORMAT' EQ '').NOCODE                                 00547600
         MNOTE 4,'FORMAT KEYWORD IGNORED'                               00597600
.NOCODE  ANOP                                                           00647600
&TABCT   SETA &TABCT+1                                                  00697600
&NAME    CSECT                                                          00747600
         DC    0A(XX&TABCT)                                    @P053700 00772600
         DC    X'C0'        CONTROL BLOCK ID                            00797600
M&TABCT  DC    X'00'        ENTRY LENGTH. UPDATED BY MODEEND            00847600
         DC    XL2'00'      NUMBER OF ENTRIES. UPDATED BY MODEEND       00897600
         DC    XL4'00'      RESERVED                                    00947600
&ENTRYCT SETA  0                                                        00997600
&ERRCK   SETB  1                                                        01047600
.MODEND  ANOP                                                           01097600
         MEND                                                           01147600
