         MACRO                                                          00050000
&NAME    MODEENT &LOGMODE=,&FMPROF=0,&TSPROF=0,&PRIPROT=0,&SECPROT=0,  *00100000
               &COMPROT=0,&PSERVIC=X'00',&RUSIZES=X'0000',             *00103000
               &TYPE=X'01',&PSNDPAC=X'00',&SRCVPAC=X'00',              *00106000
               &SSNDPAC=X'00',&COS=,&ENCR=0,&LANG=X'00',&DCODE=X'00',  *00108000
               &COMPRES=SYSTEM,&APPNCOS=                                00110000
.********************* START OF SPECIFICATIONS *********************    00112000
.*                                                                      00115000
.* MACRO NAME(S): MODEENT                                               00118000
.*                                                                      00121000
.* DESCRIPTIVE NAME:  Define a single logon mode entry.                 00124000
.*                                                                      00127000
.* STATUS: ACF/VTAM VERSION 3 RELEASE 4                                 00130000
.*                                                                      00133000
.* COPYRIGHT:  LICENSED MATERIALS - PROPERTY OF IBM                     00136000
.*                                                                      00139000
.*             THIS PRODUCT CONTAINS "RESTRICTED MATERIALS OF IBM"      00140000
.*                                                                      00141000
.*             5685-085 (C) COPYRIGHT IBM CORP. 1984, 1991.             00141100
.*             ALL RIGHTS RESERVED.                                     00141200
.*                                                                      00141300
.*             U.S. GOVERNMENT USERS RESTRICTED RIGHTS -                00141400
.*             USE, DUPLICATION OR DISCLOSURE RESTRICTED BY             00141500
.*             GSA ADP SCHEDULE CONTRACT WITH IBM CORP.                 00141600
.*                                                                      00141700
.*             SEE COPYRIGHT INSTRUCTIONS.                              00141800
.*                                                                      00141900
.* MACRO USER'S GUIDE:                                                  00142000
.*                                                                      00145000
.*    FUNCTION: This macro associates a logon mode name with a set of   00148000
.*              parameters representing session protocols.  The         00151000
.*              component description for the device represented by the 00154000
.*              LU should describe the desired features to be used and  00157000
.*              how to use those features.                              00160000
.*                                                                      00163000
.*    MACRO FORMAT:                                                     00166000
.*                                                                      00169000
.*       <label> MODEENT <,COMPRES=value>                               00171000
.*                       <,COMPROT=value>                               00173000
.*                       <,COS=name>                                    00175000
.*                       <,APPNCOS=name>                                00175700
.*                       <,DCODE=value>                                 00176500
.*                       <,ENCR=value>                                  00178000
.*                       <,FMPROF=value>                                00181000
.*                       <,LANG=value>                                  00184000
.*                       <,LOGMODE=name>                                00187000
.*                       <,PRIPROT=value>                               00190000
.*                       <,PSERVIC=value>                               00193000
.*                       <,PSNDPAC=value>                               00196000
.*                       <,RUSIZES=value>                               00199000
.*                       <,SECPROT=value>                               00202000
.*                       <,SRCVPAC=value>                               00205000
.*                       <,SSNDPAC=value>                               00208000
.*                       <,TSPROF=value>                                00211000
.*                       <,TYPE=value>                                  00214000
.*                                                                      00217000
.*    DESCRIPTION OF OPERANDS:                                          00220000
.*                                                                      00223000
.*       label          Optional label associated with the macro        00226000
.*                      invocation statement.                           00229000
.*                                                                      00229100
.*       COMPRES        Optional keyword that specifies how data        00229200
.*                      compression usage will be determined.   Value   00229300
.*                      can be one of SYSTEM, REQD, or PROHIB.          00229400
.*                                                                      00229500
.*                      SYSTEM: Use normal system defaults.  No         00229600
.*                              overrides are used.                     00229700
.*                                                                      00229800
.*                      REQD: System override to specify that data      00229900
.*                            compression is required.                  00230000
.*                                                                      00230100
.*                      PROHIB: System override to specify that data    00230200
.*                              compression is not to be used.          00230300
.*                                                                      00230400
.*                      The default is SYSTEM.                          00230500
.*                                                                      00232000
.*       COMPROT        The common LU protocols (bytes 5 and 6 in the   00235000
.*                      session parameter field) for this logon mode.   00238000
.*                      Can be any hexadecimal number from 0 to FFFF.   00241000
.*                                                                      00244000
.*                      The default is 0.                               00247000
.*                                                                      00250000
.*       COS            The name of a class of service to be used for a 00253000
.*                      session that uses this logon mode.  It should   00256000
.*                      be a name of 1 to 8 characters in length.       00259000
.*                                                                      00262000
.*                      The default is 8 blank spaces.                  00265000
.*                                                                      00268000
.*       APPNCOS        The name of the class of service used for the   00268100
.*                      session in the APPN part of the network. This   00268200
.*                      parameter only applies when coded within the    00268300
.*                      default logon mode table ISTINCLM.              00268400
.*                                                                      00268500
.*                      The default is the subarea COS. If the subarea  00268600
.*                      COS is not specified then the default is        00268700
.*                      '#CONNECT'.                                     00268800
.*                                                                      00268900
.*       DCODE          Optional keyword which specifies the LU device  00269000
.*                      code. The format of the device code byte is as  00269100
.*                      follows:                                        00269200
.*                                                                      00269300
.*                      BIT 0: 0 = Indicates terminal is keyboard and   00269400
.*                                 printer.                             00269500
.*                             1 = Indicates terminal is keyboard and   00269600
.*                                 display.                             00269800
.*                                                                      00270000
.*                      BITS 1-7: 000 0000                              00270200
.*                                Reserved.                             00270400
.*                                                                      00270600
.*                                                                      00270800
.*       ENCR           Specifies what type of cryptography (from the   00271000
.*                      VTAM encryption facility) is expected by the    00274000
.*                      LU.  Can be any hexadecimal number from 0 to F, 00277000
.*                      an equivalent decimal number, or a 4 bit binary 00280000
.*                      string.  This value is stored in the first 4    00283000
.*                      bits of byte 26 in the session parameter field. 00286000
.*                                                                      00289000
.*                      The default value is 0.                         00292000
.*                                                                      00295000
.*                      See the VTAM Customization Manual for more      00298000
.*                      information.                                    00301000
.*                                                                      00304000
.*       FMPROF         Represents the function management profile      00307000
.*                      (byte 1 in the session parameter field).  Can   00310000
.*                      be any hexadecimal number from 0 to FF, or an   00313000
.*                      equivalent decimal number.  Values 2, 3, and 4  00316000
.*                      have defined meanings, described in VTAM        00319000
.*                      Programming.                                    00322000
.*                                                                      00325000
.*                      The default is 0.                               00328000
.*                                                                      00331000
.*       LANG           Optional keyword specifying the language code   00334000
.*                      supported by the LU.  The format of the         00337000
.*                      language code byte is as follows:               00340000
.*                                                                      00343000
.*                      BIT 0: 0 = Identify the language from the code  00346000
.*                                 specified in bits 4-7 of this byte.  00349000
.*                             1 = Send query command to the device to  00352000
.*                                 determine the SBCS (Single Byte      00355000
.*                                 Character Set) language and the DBCS 00358000
.*                                 (Double Byte Character Set)          00361000
.*                                 capability.  If the language         00364000
.*                                 cannot be determined from the input  00367000
.*                                 received from the query, the code    00370000
.*                                 specified in bits 1-7 of this byte   00373000
.*                                 will be used.                        00376000
.*                                                                      00379000
.*                      BITS 1-7: 000 0000  or 000 0001                 00382000
.*                                US English, or any single byte        00385000
.*                                character set, SBCS, in which the     00388000
.*                                valid character codes are compatible  00391000
.*                                with the English codes.               00394000
.*                                                                      00397000
.*                                This is the default value.            00400000
.*                                                                      00403000
.*                                001 0001                              00406000
.*                                Katakana, or any single byte or       00409000
.*                                double byte character set in which    00412000
.*                                the valid character codes are         00415000
.*                                compatible with Katakana.  See the    00418000
.*                                3274 Control Unit Description and     00421000
.*                                Programmer's Guide for the set of     00424000
.*                                valid character codes for Katakana.   00427000
.*                                                                      00430000
.*                      These are the values of the Keyboard Language/  00433000
.*                      Character Set I/O Interface Codes from the      00436000
.*                      3274 Control Unit Planning, Setup, and Custom-  00439000
.*                      izing Guide.  If the terminal is to be defined  00442000
.*                      as Katakana, with no Query required, code       00445000
.*                      LANG=X'11'.  Code LANG=X'91' when Query is      00448000
.*                      required.                                       00451000
.*                                                                      00454000
.*       LOGMODE        The logon mode name used as a key for the       00457000
.*                      session parameters in this table entry.  If     00460000
.*                      duplicate names appear in the table, the first  00463000
.*                      name is used.  The default is 8 blank spaces.   00466000
.*                                                                      00469000
.*       PRIPROT        The primary LU protocol (byte 3 in the session  00472000
.*                      parameter field) for this logon mode.  Can be   00475000
.*                      any hexadecimal number from 0 to FF.            00478000
.*                                                                      00481000
.*                      The default is 0.                               00484000
.*                                                                      00487000
.*       PSERVIC        The LU presentation services profile and usage  00490000
.*                      field (bytes 13 through 24 in the session       00493000
.*                      parameter field) for this logon mode.  A 24     00496000
.*                      digit hexadecimal number is coded for this      00499000
.*                      parameter using the settings described in       00502000
.*                      "Specifying Session Parameters" in VTAM         00505000
.*                      Programming.                                    00508000
.*                                                                      00511000
.*                      The default is 0.                               00514000
.*                                                                      00517000
.*                      See the VTAM Customization Manual for note      00520000
.*                      pertaining to VM.                               00523000
.*                                                                      00526000
.*       PSNDPAC        Specifies the primary send pacing count and     00527200
.*                      whether one or two stage pacing is to be used   00528400
.*                      (byte 11 in the session parameter field).  The  00529600
.*                      primary send pacing count may be any decimal    00530800
.*                      number in the range 0 to 63 or any hexadecimal  00532000
.*                      number in the range x'00' to x'3F'.  Although   00533200
.*                      the hexadecimal count cannot be greater than    00534400
.*                      x'3F', any hexadecimal number in the range      00535300
.*                      x'00' to x'FF', which does not use the reserved 00536200
.*                      bit in position 1, can be coded for this        00537100
.*                      parameter.  An error message will be generated  00538000
.*                      and the default value will be used if a         00538900
.*                      hexadecimal number is coded which uses the      00539800
.*                      reserved bit.  The high order bit is used to    00540700
.*                      specify whether one or two stage pacing is to   00541600
.*                      be used.  The low order 6 bits of the           00542500
.*                      hexadecimal number correspond to the primary    00543400
.*                      send pacing count.  See the VTAM Resource       00544300
.*                      Definition Reference and VTAM Programming       00545200
.*                      manuals for more information.         @06C @07C 00546100
.*                                                                      00547000
.*                      The default is 0.                               00550000
.*                                                                      00553000
.*       RUSIZES        A portion of the transmission services usage    00556000
.*                      field (bytes 9 and 10 in the session parameter  00559000
.*                      field) for this logon mode.  This parameter     00562000
.*                      specifies the maximum length of data (request   00565000
.*                      units), in bytes, that can be sent by the       00568000
.*                      primary LU and by the secondary LU with which   00571000
.*                      the primary LU communicates in this session.    00574000
.*                                                                      00577000
.*                      See the VTAM Customization Manual for more      00580000
.*                      information on this parameter.                  00583000
.*                                                                      00586000
.*       SECPROT        The secondary LU protocol (byte 4 in the        00589000
.*                      session parameter field) for this logon mode.   00592000
.*                      Can be any hexadecimal number from 0 to FF.     00595000
.*                                                                      00598000
.*                      The default is 0.                               00601000
.*                                                                      00604000
.*       SRCVPAC        Specifies the secondary receive pacing count    00604700
.*                      and whether fixed or adaptive pacing is to be   00605400
.*                      used (byte 8 in the session parameter field).   00606100
.*                      The secondary receive pacing count may be any   00606800
.*                      decimal number in the range 0 to 63 or any      00607500
.*                      hexadecimal number in the range x'00' to x'3F'. 00608200
.*                      Although the hexadecimal count cannot be        00608900
.*                      greater than x'3F', any hexadecimal number in   00609400
.*                      the range x'00' to x'FF', which does not use    00609900
.*                      the reserved bit in position 1, can be coded    00610400
.*                      for this parameter.  An error message will be   00610900
.*                      generated and the default value will be used if 00611400
.*                      a hexadecimal number is coded which uses the    00611900
.*                      reserved bit.  The high order bit is used to    00612400
.*                      specify whether fixed or adaptive pacing is to  00612900
.*                      be used.  The low order 6 bits of the           00613400
.*                      hexadecimal number correspond to the secondary  00613900
.*                      receive pacing count.  See VTAM Resource        00614400
.*                      Definition Reference and VTAM Programming       00614900
.*                      manuals for more information.         @06C @07C 00615400
.*                                                                      00616000
.*                      The default is 0.                               00619000
.*                                                                      00622000
.*       SSNDPAC        Specifies the secondary send pacing count and   00623000
.*                      whether one or two stage pacing is to be used   00624000
.*                      (byte 7 in the session parameter field).  The   00625000
.*                      secondary send pacing count may be any decimal  00626000
.*                      number in the range 0 to 63 or any hexadecimal  00627000
.*                      number in the range x'00' to x'3F'.  Although   00628000
.*                      the hexadecimal count cannot be greater than    00629000
.*                      x'3F', any hexadecimal number in the range      00630000
.*                      x'00' to x'FF', which does not use the reserved 00631000
.*                      bit in position 1, can be coded for this        00632000
.*                      parameter.  An error message will be generated  00633000
.*                      and the default value will be used if a         00634000
.*                      hexadecimal number is coded which uses the      00635000
.*                      reserved bit.  The high order bit is used to    00636000
.*                      specify whether one or two stage pacing is to   00637000
.*                      be used.  The low order 6 bits of the           00638000
.*                      hexadecimal number correspond to the secondary  00639000
.*                      send pacing count.  See VTAM Resource           00640000
.*                      Definition Reference and VTAM Programming       00641000
.*                      manuals for more information.         @06C @07C 00642000
.*                                                                      00643000
.*                      The default is 0.                               00646000
.*                                                                      00649000
.*       TSPROF        Represents the transmission services profile     00652000
.*                     (byte 2 in the session parameter field) for this 00655000
.*                     logon mode.  Can be any hexadecimal number from  00658000
.*                     0 to FF, or an equivalent decimal number.        00661000
.*                     Values 2, 3, and 4 have defined meanings that    00664000
.*                     are described in VTAM Programming.               00667000
.*                                                                      00670000
.*       TYPE          Indicates the type of BIND request represented   00673000
.*                     by this logon mode entry (bits 4 through 7 of    00676000
.*                     byte 0 in the session parameter field).  The     00679000
.*                     only defined values are 0 and 1.  However, any   00682000
.*                     hexadecimal number from 0 to F can be specified. 00685000
.*                     If 0 is specified, the logon mode entry          00688000
.*                     represents session parameters that could be sent 00691000
.*                     in a negotiable BIND.  If 1 is specified, a      00694000
.*                     non-negotiable BIND should be sent.              00697000
.*                                                                      00700000
.*                     The default is 1.                                00703000
.*                                                                      00706000
.*                     See the VTAM Customization Manual for more       00709000
.*                     information about this parameter.                00712000
.*                                                                      00715000
.*    CODING EXAMPLES:                                                  00718000
.*                                                                      00721000
.*       (1) Code a logon mode table entry whose name is "MODENAME" and 00724000
.*           whose class of service name is "COSNAME".  Hexadecimal     00727000
.*           values are specified for the remaining parameters. (x = a  00730000
.*           hexadecimal digit).                                        00733000
.*                                                                      00736000
.*             LABEL1   MODEENT COMPROT=X'xxxx',COS=COSNAME,ENCR=X'x',  00739000
.*                              FMPROF=X'xx',LOGMODE=MODENAME,          00742000
.*                              PSERVIC=X'xxxxxxxxxxxxxxxxxxxxxxxx',    00745000
.*                              PRIPROT=X'xx',PSNDPAC=X'xx',            00748000
.*                              RUSIZES=X'xxxx',SECPROT=X'xx',          00751000
.*                              SRCVPAC=X'xx',SSNDPAC=X'xx',            00754000
.*                              TSPROF=X'xx',TYPE=X'x'                  00757000
.*                                                                      00760000
.*       (2) Code a logon mode table entry whose name is "MODENAME".    00763000
.*           Decimal values are specified for the ENCR and FMPROF       00766000
.*           parameters (d = a decimal digit).  A default value is used 00769000
.*           for the remaining parameters.                              00772000
.*                                                                      00775000
.*             LABEL2   MODEENT LOGMODE=MODENAME,ENCR=dd,FMPROF=dd      00778000
.*                                                                      00781000
.*       (3) Code a logon mode table entry whose name is "MODENAME".    00784000
.*           A binary value is specified for the ENCR parameter (b = a  00787000
.*           binary digit).  A default value is used for the remaining  00790000
.*           parameters.                                                00793000
.*                                                                      00796000
.*             LABEL3   MODEENT LOGMODE=MODENAME,ENCR=B'bbbb'           00799000
.*                                                                      00802000
.*    RESTRICTIONS / DEPENDENCIES: NONE                                 00805000
.*                                                                      00808000
.*    OUTPUT: Output from this macro is an entry in the logon mode      00811000
.*            table.  For each entry, this includes a logon mode name,  00814000
.*            along with its associated parameters (the parameters that 00817000
.*            were specified with the macro invocation or, if not       00820000
.*            specified, default values are used).                      00823000
.*                                                                      00826000
.*    CHANGE ACTIVITY:                                                  00829000
.*                                                                      00832000
.*       04/19/88  Added copyright information                 @P055566 00833500
.*                                                                      00835000
.* $MAC(MODEENT),COMP(USER),PROD(VTAM): DEFINE A SINGLE LOGON MODE      00835200
.*                                      ENTRY                           00835400
.*                                                                      00835600
.* FLAG REASON   RELEASE DATE   ORIGIN  FLAG DESCRIPTORS                00836800
.* ---- -------  ------- ------ ------  --------------------------      00838000
.* $01= OY19445  HVT3303 890504 042852: MSGIEV044 UNDEFINED SYMBOL      00839200
.* $J1= XD@@@CLD HVT3431 900710 797350: DATA COMPRESSION                00839800
.* $BB= ACC@@AMS HVT3401 891025 615520: PL/AS CONVERSION                00840400
.* $02= OY34863  HVT3401 901018 810410: DELETE AIF FOR NULL LOGMODE     00841600
.*                                      NAME ON FIRST MODETAB ENTRY     00842800
.* $X1= P093041  HVT3431 910201 797350: COMPRES DEFAULT INCORRECT       00843000
.* $X2= P093042  HVT3431 910201 797350: COMPRES PROHIB VALUE INCORRECT  00843200
.* $X3= P093101  HVT3431 910206 607388: COMMENT CHANGE WHEN SPECIFYING  00843400
.*                                      SRCVPAC, AND SSNDPAC            00843600
.* $X4= P094766  HVT3431 910402 797350: SINGLE DIGIT HEX ENCR           00843700
.* $X5= P095188  HVT3431 910404 797350: SINGLE DIGIT HEX ENCR           00843800
.* $03= OY48211  HVT3431 911107 001569: CHECK HEX VALUE FOR PSNDPAC,    00843900
.*                                      SECPROT AND PRIPROT             00844000
.* $KF= ST@@@CLD HATAPPN 910717 458230: TRS Modename Support            00844200
.* $04= OY53368  VM341   920430 787924: CORRECT GENERATION OF COMPRES   00844400
.*                                      VALUE FOR XF ASSEMBLER          00844800
.* $KG= ST@DR001 HATAPPN 920325 458230: Multiple Mode Table Support     00844900
.* $05= OY53568  VM341   920605 787924: CHECK LOGMODE NAME VALIDITY     00845000
.* $06= VM52883  VM341   920816 787924: REMOVE CODE FOR OY48211         00845100
.* $07= OY56445  HATAPPN 921029 062811: IMPROVE CHECK OF HEX VALUE      00845200