         MACRO                                                          00037500
&NAME    PSEGEN &NEW=,&OLD=                                             00075000
.********************* START OF SPECIFICATIONS *********************    00112500
.*                                                                      00150000
.* MACRO NAME: PSEGEN                                                   00150900
.*                                                                      00151800
.* DESCRIPTIVE NAME:  MAPSESS ENTRY GENERALIZATION DETERMINATION        00152700
.*                                                                      00153600
.* STATUS: ACF/VTAM VERSION 3 RELEASE 4                                 00154500
.*                                                                      00155400
.* COPYRIGHT:  LICENSED MATERIALS - PROPERTY OF IBM                     00157200
.*                                                                      00159000
.*             THIS PRODUCT CONTAINS "RESTRICTED MATERIALS OF IBM"      00159900
.*                                                                      00160800
.*             5685-085 (C) COPYRIGHT IBM CORP. 1988, 1991.             00160900
.*             ALL RIGHTS RESERVED.                                     00161000
.*                                                                      00161100
.*             U.S. GOVERNMENT USERS RESTRICTED RIGHTS -                00161200
.*             USE, DUPLICATION OR DISCLOSURE RESTRICTED BY             00161300
.*             GSA ADP SCHEDULE CONTRACT WITH IBM CORP.                 00161400
.*                                                                      00161500
.*             SEE COPYRIGHT INSTRUCTIONS.                              00161600
.*                                                                      00161700
.* MACRO USER'S GUIDE:                                                  00161800
.*                                                                      00162600
.*    FUNCTION:  This macro determines whether there are any            00163500
.*               mapsess entries that are partially more general        00164400
.*               than the current entry.  The old entry is partially    00165300
.*               more general when all non-matching characters map      00166200
.*               to a wild card character in the other string.          00167100
.*               PSEGEN is used internally by MAPSESS.                  00167500
.*                                                                      00168000
.*                                                                      00168900
.*    MACRO FORMAT:                                                     00169800
.*                                                                      00170700
.*       PSEGEN  NEW=, OLD=                                             00171600
.*                                                                      00172500
.*    DESCRIPTION OF OPERANDS:                                          00173400
.*                                                                      00174300
.*       NEW            Current mapsess entry.                          00178300
.*                                                                      00178800
.*       OLD            Old mapsess entry.                              00179100
.*                                                                      00179400
.*    CODING EXAMPLES:                                                  00179700
.*                                                                      00180600
.*              PSEGEN  NEW=I,OLD=MAPMAX                                00182400
.*                                                                      00183300
.*    RESTRICTIONS / DEPENDENCIES: NONE                                 00184200
.*                                                                      00185100
.*    OUTPUT:                                                           00186000
.*                                                                      00186900
.*                                                                      00187800
.*  CHANGE ACTIVITY:                                                    00188700
.*                                                                      00189600
.*  $MAC(PSEGEN),COMP(USER),PROD(VTAM): MAPSESS ENTRY GENERALIZATION    00189700
.*                                      DETERMINATION                   00189800
.*                                                                      00190000
.*  FLAG REASON   RELEASE DATE   ORIGIN  FLAG DESCRIPTORS               00190500
.*  ---- -------- ------- ------ ------  ---------------------------    00191400
.*  $E0= ES3@@CLD JVT3204 880506 143586: OVERFLOW: SAW FILTER           00192300
.*  $P1= P060543  JVT3204 880922 765423: ADD ACTR INSTRUCTION           00192700
.*  $BB= ACC@@AMS HVT3401 891025 615520: PL/AS CONVERSION               00192900
.*  $T1= P103483  NQNAME1 920831 410106: NQN SUPPORT FOR SAW FILTER     00193000
.*                                                                      00193200
.*********************************************************************  00194100
.*                                                                      00195000
.* Checks if NEW is more general than OLD, by comparing character       00200000
.* values.  It is more general if all nomatching characters in one      00250000
.* string are represented by '?' in the other.                          00300000
.*                                                                      00350000
         GBLA  &MAPDMAX                                                 00361100
         GBLA  &MAPMAX                                                  00372200
         GBLA  &MSKMAX                                                  00383300
         GBLA  &MSKDMAX                                                 00394400
         GBLA  &MAPMSKS(2000)                                           00405500
         GBLA  &MSKMCNT(2000)                                           00416600
         GBLB  &MAPFNDA                                                 00427700
         GBLB  &MAPUSE(2000)                                            00438800
         GBLB  &MOREGEN                                                 00450000
         GBLC  &MAPNAME(2000)                                           00457100
         GBLC  &MAPSAW(2000)                                            00464200
         GBLC  &MAPKEEP(2000)                                           00471300
         GBLC  &MAPMASK(2000)                                           00478400
         GBLC  &MAPPS(2000)                                             00485500
         GBLC  &MSKMASK(2000)                                           00492600
         LCLA  &I                                                       00500000
         ACTR  16777215                                            @P1A 00508300
&MAPDMAX SETA  2000                                                     00516600
&MSKDMAX SETA  2000                                                     00533200
&I       SETA  1                                                        00550000
&MOREGEN SETB  1                                                        00600000
         AIF   ('&MAPNAME(&OLD)' NE '&MAPNAME(&NEW)').GENBLD            00650000
         MNOTE 4,'Duplicate selection (&MAPPS(&OLD)), Ignored.'         00700000
         MEXIT                                                          00750000
.GENBLD  AIF   (&I GT 32).FINE                                     @T1C 00800000
         AIF ('&MAPNAME(&OLD)'(&I,1) EQ '&MAPNAME(&NEW)'(&I,1)).GENNXT  00850000
         AIF  (('&MAPNAME(&OLD)'(&I,1) EQ '?') OR                      X00900000
               ('&MAPNAME(&NEW)'(&I,1) EQ '?')).GENNXT                  00950000
&MOREGEN SETB  0                                                        01000000
         MEXIT                                                          01050000
.GENNXT  ANOP                                                           01100000
&I       SETA  &I+1                                                     01150000
         AGO   .GENBLD                                                  01200000
.*                                                                      01250000
.*                                                                      01300000
.FINE    MEND                                                           01350000
